* LTspice Encrypted File
* 
* This encrypted file has been supplied by a 3rd
* party vendor that does not wish to publicize
* the technology used to implement this library.
* 
* Permission is granted to use this file for
* simulations but not to reverse engineer its
* contents.
* 
* Begin:
 A0 5D 4D 8B DF BC C9 4B FF BA B2 C2 65 FD 41 8B
 DF B4 5B 2C EA DC E2 56 89 14 1A 54 06 64 6F 6B
 7A CD 81 BD BD D8 D2 6D 9E 86 44 F0 1C 2B 80 50
 75 E2 F2 F0 41 42 4E 76 5D D0 49 1E B5 63 7A C0
 FA 31 27 FD 91 E3 9B 6B 00 BD 0B B3 96 7C F6 E6
 7C C6 BF 59 2C E8 1F A3 DE 79 05 E0 22 26 19 88
 26 36 FD 0D 01 FB 2E 30 18 BF F7 58 69 16 19 17
 A9 EF 71 8F 4B 59 A4 2A B7 7E F4 76 B4 BC 06 6A
 91 A2 3D EF 42 40 62 50 FC 64 63 6F 87 D3 82 8B
 B6 D5 C0 D9 9A 12 D1 4C D5 BA 81 BD 39 24 34 3D
 8A 38 3E BE E3 4F 50 B0 49 18 5F 12 5C 2F E0 83
 B0 DB E2 C9 D7 50 40 7C AA BC 12 91 F5 A0 F4 67
 26 77 50 37 31 21 D3 A5 92 D0 9E 74 E9 C7 C5 64
 F1 10 00 8F 1D F7 65 BD 1C 66 82 12 53 71 99 E5
 1C 57 2A 2F 10 F7 2F FF 7E AD 97 4E 48 C0 90 BE
 ED F5 E2 07 92 F0 8C B8 9A 65 55 22 63 75 13 A1
 08 E8 23 C4 EA 29 69 F6 73 F7 09 4D 48 BE 79 5A
 6E 53 1D 85 0F F0 D1 A7 6B B2 EF DB C5 0D C4 1A
 14 D7 75 0C A8 64 6A 78 0C 07 E9 CB F3 A5 2E 0F
 53 B9 A2 57 B9 4B 65 0C 99 97 3A 2E ED D5 33 A4
 69 5F 65 AA D3 8A 59 A9 39 53 9A 94 20 3A 2F EA
 69 6E C2 EE 1C 1C 90 05 CD 3E F7 9E 8D 6A 97 A8
 25 44 6D 18 8C EB 03 67 33 D7 8B B0 88 A7 88 24
 7F F9 D7 29 C6 5C A2 09 D6 00 F5 C7 3D C0 CF 20
 45 B8 07 C8 68 1D 56 96 6E D3 D0 52 C4 A3 36 2F
 03 BB 64 14 8B 72 9B 7A 77 84 D8 B6 E5 3A F8 26
 23 93 71 2D 53 BA 59 8B F2 F3 74 3E C7 60 E1 27
 14 07 55 E5 BC D8 39 0E DF 36 30 D5 28 35 ED 21
 C9 91 25 9A 1D 7D D6 02 2D 78 1A F4 2E 97 F2 62
 61 91 E6 06 90 46 E9 F3 C7 B7 52 0F F1 D1 AB 42
 95 E7 59 0B A6 98 A8 45 2A 95 EA C2 53 3F 44 7C
 B2 04 72 A8 45 F6 E2 81 16 41 CB 08 BB 88 6E D4
 20 78 39 F2 92 28 E6 C9 32 E4 60 95 C0 1F 9F 60
 4B 0F AD 6B 0E 00 71 FA 47 7E DF 44 D2 F3 97 84
 41 A5 DC 98 9D C7 AC 72 F1 9A E1 97 DB 52 E1 C2
 FA 42 87 66 42 18 18 B5 B4 AA CC 40 3A FD BA 35
 32 7A 74 EF 21 B1 CE C3 1A D4 EB 28 2E E9 5D 6F
 BB 37 42 84 D0 05 EA 6C 78 AB 93 F7 99 6C 10 DC
 B2 AE 6F F9 B7 93 E1 18 41 30 EB D7 88 8A 73 01
 07 74 24 62 E9 55 F3 9F A2 E7 B8 FA 0C B0 CF A0
 D9 33 D3 FC 9C DF 19 1C A8 3A AC FC 9D F6 CE F9
 18 C8 19 29 A3 86 B4 13 A5 F3 C3 3F E8 56 F1 9A
 ED 3D 58 72 2E 9A 3D 72 E0 E6 4F ED 55 6F 47 A2
 D4 0B CC 15 A9 D9 27 5C AF D8 92 15 E4 C2 8E 2F
 FA 7B 8D 20 F9 19 0F B0 78 83 C3 D3 76 F1 72 BD
 62 77 CD C2 A1 41 7A A8 A8 57 5B 3C C5 67 9D 75
 64 5A E9 49 D7 B5 7B 75 28 70 B8 C3 06 76 8C DE
 FF 47 7B 7A 19 1E 67 EB 91 0E 3C A4 22 A4 3A 5C
 5F 2C 3D AD 31 62 0C 5B 9A 4A 60 36 76 89 B8 5F
 A3 A1 7B 76 0B FB 6F ED 8C 6A 60 5E 74 8F D6 E3
 A0 39 73 95 0B E1 77 7C 3F 16 28 EE B1 8C 86 B6
 05 A3 DC D7 2A DE 8C C3 81 E3 3D E6 01 EA 2B 24
 2B 4B 89 4B E0 04 61 D3 69 BF B2 C2 16 50 38 D8
 8E AA E6 03 E9 8D DB 9B 2A 47 34 3D 54 4C 0A E6
 2A 60 9E D9 ED 11 BF 1F 3C 3A D8 98 2A 70 3C 3E
 0B BD CB F6 4A 29 E5 B8 1F 00 9A 78 A8 88 E6 4D
 98 F5 B0 6C B4 51 D1 21 E1 FD 0D 7F 1E 39 6B 8C
 10 85 41 A4 1B AF 36 AB 9D 6D 89 DB 00 F4 62 D8
 77 3B F8 7D 05 CA DE BF C5 15 D9 FE 2C FE 46 6E
 DA 8D F8 C0 78 2F 40 F7 2E C4 8A 67 6B 03 A2 DD
 C6 CE EA CB E3 C2 00 D9 35 5F 39 37 80 8A BA 1D
 E3 48 F0 96 87 D4 F7 04 5E 3D 72 A4 D6 93 C3 55
 CD 2E 96 6E 22 3A B2 A6 13 E3 18 48 A8 43 31 EA
 6E 8E 7B BF A6 2E 6C DB D6 5B 11 ED B6 19 4E 06
 B4 A8 69 A2 B9 D5 F2 EF 78 F5 35 41 D9 72 3B 63
 AF 98 E4 E9 16 7E 38 A8 18 83 B0 3E 0C FF 87 D4
 EF 8B FA 45 A4 03 88 B6 AB 5B B3 42 AD 41 6B 10
 09 A9 D2 05 56 B4 E7 1B A6 B0 E9 E8 B3 CC 9D 19
 E8 68 3E 39 43 84 A0 FE 46 C2 35 84 7B A3 87 A9
 79 AD 9C 48 70 00 56 C3 18 94 0C 44 28 E8 78 C0
 FC 7D FA E0 1D BB B9 F1 DE A5 C6 4E D8 B2 2F 67
 CB D5 49 E5 CB AB FC B8 39 3E 1B DD A4 86 73 3C
 50 BC BF AA 00 A2 2B 8F 81 11 10 3F B8 2C CF 22
 7E E2 90 A0 43 E6 3D 90 CC 2E 84 4F 5C 48 CB F6
 5C CB BD 77 89 E5 BA 99 07 DD 1C D7 E4 9F 3A 94
 03 B4 8B C9 BF 82 E2 8F 18 8F 82 0C BC 1F D3 F2
 B3 79 8A 7E D4 22 BE F6 EC 74 40 55 09 26 0C 36
 66 4D FF 5D 73 B9 37 26 60 1C 85 09 65 C2 D5 76
 7B C7 7F C5 E9 DF 05 56 B0 70 18 6B A2 C0 48 EA
 52 76 97 3B EA 33 B4 10 98 02 6C BB 67 AC BB 08
 49 5F 80 A9 A9 4E 11 AF 2E 58 46 C1 BD 8A F6 B4
 F9 DF 7E 1E 8E A8 FB 8C 5F B1 8E 12 F6 9A 30 4D
 AE D7 F4 ED C0 B4 84 76 9D 06 4C EE 07 15 88 0C
 DD F9 E0 76 A5 C7 B7 28 26 58 49 58 E7 0F A8 8E
 36 9C 78 62 30 82 17 90 52 A6 2A 6A FC 17 9D 3B
 A6 48 4B 61 30 9A 30 8F 5F 1C D0 3F 5B DE 3C F0
 24 56 45 25 74 2E BC 99 46 24 31 31 58 F1 FD F7
 D3 84 C0 15 DB B3 49 10 C2 8D BA CD 95 E7 D9 9C
 B5 15 20 CF BD E5 1D 54 DB 02 D6 CA 32 62 78 4D
 20 B7 C4 51 28 8E 6E 67 52 A9 D2 BB BA 61 1B B2
 63 16 34 87 EB 48 A2 AC 6C DD 7B E1 98 43 6F 7C
 0B 1F 4E 68 A9 0A BD 24 74 F1 D3 6E D7 09 59 26
 B9 F5 F9 E3 14 9E 2C 97 37 DA D8 0F EB 22 C1 36
 B5 ED E7 4D AC D0 9F E5 C7 DC 76 BE CD E8 06 F0
 16 A0 0F DF AF D9 ED 0B 37 4E D4 68 56 64 99 42
 82 01 05 D8 C5 F5 97 71 82 21 C2 56 73 D3 65 48
 90 83 CF 85 6F CE 1A FF D9 C6 35 D4 E5 42 31 53
 6F E2 60 96 47 12 5F 17 15 8E 39 BF 4E B2 E0 8A
 E4 CA 8F 0F 1C 90 73 F6 12 5A 01 FF AE 82 45 9F
 3F B9 C7 AB F9 90 65 6B E7 F3 CC 8C E9 FB E2 49
 A9 DF E4 43 72 74 A4 A9 F7 E9 44 99 49 41 1B F3
 73 88 A8 CE D1 23 97 C0 5F 8D F4 C4 2A EA 3E 7A
 86 93 49 20 97 0E 95 9D E0 06 70 05 53 80 15 FB
 F1 FE E9 E1 F5 57 FA 96 68 41 2C D4 35 C0 8A B4
 0A 5E 24 4B 27 04 DD 20 9A 7F D3 1E EE 32 FB DB
 1A 70 08 84 CE A7 B7 71 28 24 6A 4F 85 DF C8 B6
 BD 65 3D C1 9F 88 1A 06 B4 F1 D6 9F D8 CA 0F 51
 55 AC 2A FE DD A7 47 62 01 C0 3C 6A C9 A7 8B 5E
 5E 19 77 82 C3 C3 8D AE FD 3A 58 42 67 2C 60 C5
 75 2C 79 E9 78 74 A3 67 2B 1E 27 B9 72 3B 8C C6
 CC AA 07 F0 B9 8C B9 BC 19 47 03 11 E5 B5 1D 1C
 57 66 E2 5E CA 6E 8A 1B F4 5E F7 18 8B C6 3E E0
 C9 01 5C 5E 9F 83 EE 84 11 23 26 EF 18 A6 8C B9
 14 CB C4 2C 1D 47 CD F0 23 25 94 58 7F F1 E1 A2
 18 20 1C 0F 2F F0 F1 B8 2A D4 6E 18 CC E3 11 DB
 39 22 6E CC 47 9A 63 85 4C 98 78 F5 D8 C7 0E 5E
 3F 25 07 67 BB 26 73 73 14 FA F7 95 48 7B 47 22
 04 3A 3A E5 4C 2B F4 12 6E 68 3B 6C 24 06 21 44
 80 C8 51 34 95 A0 F5 37 5E E9 62 CF F3 6F 25 84
 44 DF 6E B7 41 D7 00 5E E8 08 A2 8F B1 8D 05 F3
 B8 5F AD 1C F1 FF 08 70 8C A4 C2 93 20 ED 9F 2D
 C3 EE 79 39 B7 64 C6 99 FF 02 81 E4 8D 64 4A 1A
 46 EA 66 83 E0 98 70 09 08 21 FE A6 0F 6E C8 10
 03 F0 1D A5 B4 C5 64 F1 D9 06 2E F9 0A 85 51 10
 D6 0E 05 D9 09 50 A1 96 78 61 A7 E9 E6 2A 35 08
 7E B4 84 5B 54 C3 6A B6 7F 89 B4 13 E7 84 4B 16
 7B 52 D8 67 5A F5 11 E6 ED 75 48 CC 85 EF 63 1D
 37 B5 47 41 9B A7 72 C3 16 FE A9 3D 23 40 B5 FE
 D2 94 52 05 8D DA 9C 37 0E 77 9B F2 BA 2A 84 95
 4B 7F 6C 34 E7 64 A9 D6 47 A3 C8 E0 4F AD 03 D9
 C9 53 A7 70 AA 45 EE 45 B7 55 EF BE DC A9 93 1D
 9F 97 D6 0F 94 59 4B 5B 5F 3C 29 C7 7D 66 C3 5E
 CB E7 51 92 09 A9 58 10 DF 03 DB 3C C2 D9 B5 7C
 34 F5 69 B5 EF 50 F5 5F 5A AF 4C 13 52 09 FE 31
 B7 B0 01 C0 DA 8F 28 81 F1 13 17 C2 E6 77 20 48
 EC 34 35 33 1F BB 2D A6 0E 30 F8 DF FB F1 D2 95
 6B 81 6E 8A 3F F2 BE 03 F4 01 C1 C1 29 6A 68 C9
 E9 B0 A9 1D FD D3 23 B8 D8 C9 C3 E1 5F 7D 88 9B
 28 06 74 26 64 82 87 57 EE 47 8A C2 D3 01 06 4C
 8B DA 4D 31 D2 D2 35 9E 14 89 F8 33 49 36 1E 5D
 4F B4 9B F2 14 25 27 9A CD 7C EA 5A B0 4A 5F DA
 D1 A2 EE 96 5C 60 D2 0B 52 D5 D2 91 33 01 86 41
 15 17 62 96 76 CF 2F 09 85 65 03 34 E9 1A 2A E0
 02 BB A1 77 23 54 66 E2 9E 0A 58 E3 B1 EB 8E 88
 88 9D 2F 46 E3 C6 F4 8A 4A D5 07 B8 C6 E4 F5 45
 FD A3 2B 32 17 5E 60 11 5D BE 6B A1 8E 75 71 CB
 64 F0 5C 15 2B 50 53 37 0C 3D 4C C0 E4 83 34 FB
 E8 9A A1 93 43 2D A3 B7 F3 57 2B 7F 8F 4D A1 FC
 1D 9E 5B 11 A4 E1 2F 31 8A 2D EB 95 B4 1A BD B3
 5B 2F 60 50 22 9B D3 DA F7 DA 95 D6 F2 8D 4D C9
 05 A9 FE 40 0F AE CE E1 D4 06 3D 72 AC AE C4 E5
 32 47 D1 64 EC 61 60 9C 07 C0 9B 60 A4 42 7C 80
 6A AD 36 6F F4 2D 67 D5 04 2B 87 80 6F 72 74 DF
 26 76 4D 9C BC 72 08 62 E0 18 77 39 D9 CA A8 DB
 BE 68 D3 CB 5F 34 47 26 9A AC 2B CA 48 E8 6F 73
 EE 3F A9 54 66 A8 17 F6 CD C5 4C 58 1C 22 59 83
 47 0E EF 29 B5 DB F3 99 C8 00 8C 6E AB 79 E2 BE
 0F F1 4D 1E 45 91 89 2C 07 A9 6E 04 63 E0 78 29
 B6 8A CF 10 79 7A ED 31 CF 50 D3 66 56 A0 CE 6F
 CB 06 23 38 BA 8E 08 E1 97 00 6E 5A FB E3 08 5F
 3D 22 70 E8 B5 1F 30 49 E5 99 BD 4C 22 BF E6 20
 10 F5 3C 93 34 D4 92 D1 81 6B 1C 93 7C 12 BC E0
 3E 72 72 E2 8D 3B 34 86 11 F1 31 B1 BE 51 39 36
 3C 7B B7 48 DB D6 98 D6 71 A6 03 FD 3A D1 00 89
 11 F4 B9 79 5A 64 7D FD A3 7F 3C B0 3D B9 B2 31
 C8 61 D7 B4 AD 04 3C 9E EC AF 29 D7 36 A3 99 BC
 DD 36 E5 C4 AD DC 0C E2 76 83 49 72 E9 E3 83 3E
 1F 31 A6 C3 BF 1B B8 0F 54 49 B2 8A 7D A1 2F D5
 8A 9E 82 19 06 99 9B 5E A1 5A 32 ED 57 84 71 FB
 BB 65 A3 3B D2 FB 2A 0C 38 57 28 19 67 93 F0 59
 5F 06 76 29 55 24 0E 5B 7B 54 BF 65 99 D4 DF 1F
 AA 8E 32 05 7B 85 D3 2D EC 37 42 E7 C1 04 79 CC
 C0 02 F9 A0 40 92 E2 87 48 A4 89 73 5E 69 4E 03
 96 B1 9D B6 11 81 CB AD A9 BD 22 AE 13 C4 9B 76
 75 11 38 8B 11 7B 5F 1B 1D 6C 63 45 5F B5 4A 38
 7C 8F E1 9D B6 D3 10 74 BB 68 2A C1 94 1E A9 12
 7A 58 61 45 BE 13 A7 E1 E5 34 6F EA 02 BE 03 11
 67 28 C7 5F 8D A8 7B BF 2B 09 45 92 47 93 92 B2
 64 06 C8 29 3A F1 86 8D B2 DD DA E6 32 5D 43 51
 FA FF AA EA 32 BB 3C A4 CC 5F 3E 0E 53 FA 0C EB
 F0 9B A5 D0 9B 13 D3 7C 1E 2A EA 80 C4 F6 19 11
 B1 35 80 3B BC A2 BF 78 09 6C 2E 3C B8 64 B3 7B
 D3 44 83 FE EC 6A 23 00 1F AF 14 88 0B D4 EB DF
 3B 18 C9 9D 2A D8 64 46 BB C1 32 FC B5 E5 17 6A
 61 A6 F5 E6 C0 42 36 97 75 AE 3F FD 4C 7B 31 E4
 EC F9 B1 2E BF 11 4C D3 AA 3F CE 3E 93 4D 5F 60
 E8 E1 50 2C CA BF DF 3E 94 07 76 E3 CB 8C 42 E8
 E7 C3 49 82 5F C4 D9 08 5D 4A 74 6C F1 87 77 9C
 93 15 A8 71 DF 8F 98 98 5B E2 F3 18 00 D0 EF 8A
 8C 46 6E E9 EA 3E 7A D1 64 E4 B1 2A 08 26 01 1C
 D3 69 F5 E6 82 43 AA A2 DB 8D 47 37 13 B5 B9 11
 4B 5D BB 29 52 AF 57 8A 0A CB 47 80 ED A8 1A 1D
 DE 48 34 4F B6 93 BA 33 37 0D F1 6D 01 F5 BF 39
 FC 18 C8 9D DF A9 82 7B A3 4D 5D FB 3A D9 DF 62
 EF 04 6B E0 36 54 29 21 2B F5 B6 4E 1E 8E 87 08
 58 19 4C B0 6A 0A 0A F2 2A 57 EF 9C 24 23 65 E1
 9C 0D 6E 98 A6 D1 EA 46 7F 0C 45 97 85 D5 B6 72
 AA 1B 8A 4D CE AB D6 5A C9 36 BB B3 32 20 A6 D1
 77 22 7F F8 18 9B 91 E0
* End 2586981074 736295373