* LTspice Encrypted File
* 
* This encrypted file has been supplied by a 3rd
* party vendor that does not wish to publicize
* the technology used to implement this library.
* 
* Permission is granted to use this file for
* simulations but not to reverse engineer its
* contents.
* 
* Begin:
 C8 5A CC EF C7 1D B3 1C A6 03 16 8A DE 46 9A 49
 75 A2 93 68 F6 BB 28 FB BB 6E 22 E4 6B F2 4C 7D
 68 5B 0E 8D D0 D7 90 D5 B3 69 E6 6D FC 89 51 D7
 9D 30 C4 29 F6 19 18 CA B6 2E 5D 4D F4 1B 51 98
 CB 8A 34 A0 4A 70 D1 47 89 49 2F B0 CC 61 E6 EF
 55 EF 93 AF 84 B8 3D 76 AE 2B 79 F5 A4 9C 4C 9D
 58 71 E0 AA CE 4F D5 88 BA 49 FC BA 07 24 5D 69
 86 37 CC 6A 65 97 86 31 6D 7B BD 1C 4F D0 CE D2
 E3 94 FF AC 5A 88 4D 32 20 BB 22 1E 95 21 C8 08
 94 E1 76 64 64 07 1E D3 08 1E B8 85 EE E6 60 41
 A6 67 8C B0 70 7B 1F 78 C2 C6 59 FA E1 DC 8E 12
 B7 C3 20 E0 7A 9E 17 98 16 A4 95 B6 B6 26 28 15
 BB 03 15 40 E2 52 7E FF 5C 71 12 49 20 11 9D F4
 A9 34 CB A2 AA FB AA 50 55 C0 AB 53 4F 5C 6E 9C
 3A D0 45 BA C5 EA 41 F9 27 F3 D6 37 3A 9C 27 FD
 A2 F3 00 7B A4 70 6E CC 0F 6D 56 CF BB 26 B0 DD
 AE 9F 34 CD 2F 30 53 19 CA E6 D4 94 4C C6 38 B3
 1D 06 8B 33 07 EB EF 9C 04 D0 DB 93 AC 2A 81 A4
 87 7B 6A B8 DA 56 E7 F7 6E EC 2B B3 E4 CD 62 24
 87 6D 47 BC 56 DF C0 04 CF 88 AE 7B 84 5E CF DB
 5F A1 9A C0 E6 F1 B3 28 53 8B 59 CB 78 15 9A B0
 83 DC BE EB D6 D8 61 24 51 C5 E1 AD 5B 1B FA A3
 8B C5 AD 32 66 09 A4 5A 91 E7 13 AA BA 04 1B ED
 00 75 C5 BE 2C AB 7D 5C 47 75 89 C3 CB D6 82 68
 64 C9 5E 7B BA 9A D6 1A E8 E9 63 0B EB 0D 0E A2
 41 99 B5 FE C3 81 64 67 76 01 59 15 2D 27 D9 52
 85 BF A4 79 F3 E4 8C 0E FF BF B5 39 51 27 B4 10
 0F 95 D9 C4 C8 E6 EF 37 CE 61 8F DF F7 19 0A 03
 6A 72 38 F7 E5 65 F5 DE E5 AE 7D B6 16 9A 73 25
 AE D3 AE EB 95 99 85 85 E6 78 D4 10 7A 82 6C 82
 26 49 EF 5A C4 C6 42 DE A3 FB 00 87 C7 1B 82 06
 D4 37 0D 30 17 D3 A8 BC 54 0D F0 7A 79 C1 79 2F
 D3 05 54 9E 51 51 84 B0 39 9C A3 0C 53 E3 77 9A
 37 F1 2D FD 9F DC 65 94 85 1D ED 38 F3 5B A0 A0
 60 63 AC 86 85 20 D0 57 C0 29 B5 79 6D 87 C9 80
 DF E5 24 90 35 3C 71 52 E0 25 46 3D 10 93 97 26
 88 77 8D A7 86 8C AE 96 90 16 A6 04 81 4C 7F 2A
 67 B4 09 03 97 96 71 A4 FD 24 42 A6 EE B8 DD CF
 96 8E E5 38 DA 7B 15 E7 8F A5 D5 13 FA EF 32 62
 5E AC 8D 4B BE 1B 4C AF 42 EA 3C A5 7B B6 42 40
 80 81 40 85 50 06 53 BA DE 37 C4 16 94 18 76 26
 31 8F 19 14 18 F1 B4 9F A2 7F 40 F7 30 1A 38 CF
 49 9A DF D4 15 EF 93 80 23 E2 03 F3 60 49 ED 26
 F3 F1 F7 9C 35 62 DE 28 79 07 B0 8D 6A 61 AC 42
 1C F0 BA 8B FC B8 B5 5B 62 54 7A 6C 53 35 C3 02
 E9 E1 B8 B0 B7 6A 4D 17 52 7A C8 9C 04 03 A9 1C
 AD 3B E1 03 26 7A 0F A1 18 3B 2F 7A 24 E9 DC 35
 42 91 0F 97 57 7B EC 29 55 5F 8D DC E4 38 4C 3C
 23 DD 54 EA D0 D3 8C 7C 8B 0F AA 45 59 CA D8 B1
 CC 33 2B FE 9F 6B 18 BE 55 5B B4 35 D2 DC 3D 48
 65 EE 05 DF C5 DA EB D4 3E 66 A7 51 8F 17 DA 7E
 6C B1 04 42 FD 4C 33 F4 FC C8 7C B6 7C 36 FA EB
 48 9A B5 A5 C2 F5 FC FD 78 9A 02 AC 2F 5E 6B 3E
 1B 62 D3 F6 98 D1 9A 1D 6A D0 D0 2D C3 EE 98 95
 33 20 50 D1 9B 61 AF 4D 2B 4D ED EC 0F 8A 28 EB
 6D 96 3D 8C 97 E5 90 9D 2C 71 CC A3 BC 5D FD 57
 C7 D9 E9 BF FA 7F E4 15 CB 9E D1 0D 06 70 F6 8D
 5B D7 9A 18 76 E1 8D 05 57 D7 57 15 F3 7D C7 71
 4A 55 D9 56 C1 D5 EA E4 A9 B7 67 8B 20 84 D1 C1
 B7 1D A5 E5 2D 32 B1 A2 B1 1B 86 AA 30 E5 5F 58
 1B 1A C3 C4 02 CD 31 B7 19 60 86 B4 F3 A3 44 FA
 BE 13 54 76 33 3B 39 AE 96 D9 DD 7B F1 64 04 A9
 D6 2C AA 0C 41 CF 18 5C AF 5F C9 99 A7 2D 80 A0
 2A 46 5D 69 2D A3 E9 8A 4E DB 28 3C 1E 97 30 79
 18 34 A6 C0 76 27 AC 19 BD 05 97 5C F2 BE F8 9F
 06 71 1D BD 4C 7D F6 BF 40 11 06 32 C2 AF 3F E7
 84 84 D7 A9 DE EE 2B 2F 07 02 46 31 30 FF 3A 73
 EC 35 88 B4 E5 4D 37 B3 E5 46 A4 AC E8 7D D5 6D
 F9 93 21 26 0C 28 67 B9 2B F9 84 0E 6F C5 DE C6
 DE AC 56 B4 97 74 63 E9 CA D9 F0 64 3C 4A AE F9
 16 18 D4 81 D4 C9 06 92 54 77 1B B3 E8 78 8B E7
 2B D4 D9 9C 5E 4B 82 8F B1 DB 4D E4 6F C2 85 CF
 53 24 2E 06 E5 87 0D 08 57 03 81 8B C5 D8 54 00
 50 52 E1 36 78 4B 7F 2B 70 6B 0F 29 B0 AD 20 64
 74 29 8E 9A 0A E8 41 6F 62 94 A9 FA B4 4F 05 DD
 1B E3 31 BC 61 70 01 2A 1D E7 C7 B3 CF 69 76 74
 60 1A 36 D5 31 DC 8E 86 BB 9B 25 82 84 FD D7 89
 2E 90 D8 64 AA 16 B1 0B 0E D3 85 F1 80 EF B5 5F
 CF 6B 1B 6E 7C B2 45 42 8B 39 A4 03 40 2C 4D B9
 59 D6 CB 20 A9 6E 21 B5 6E 01 9D D0 F0 19 50 B6
 1D D2 18 4A 4D 81 18 2D 3A 03 EC 2E 13 03 C7 7A
 76 CD C2 98 FB 38 34 C5 58 F2 EE D5 4C A8 63 7E
 B3 F7 A5 A1 CB DC E7 2F 7D 7E B8 AF 00 E4 24 1C
 4E 74 69 C7 FC 07 C2 34 91 60 9B 32 E7 AE 57 47
 7D 48 A0 95 AB 4B E8 B3 F0 C3 7D 18 F8 CB 98 3D
 3C 13 01 CE CA C6 F3 B3 11 AC AD CE E3 C8 08 BF
 CC 44 38 90 8C EF 86 99 94 1D DF A0 53 8F D8 E8
 97 F6 83 D0 22 3B 9C 97 B7 BA B0 7D 9D 1E 28 47
 EF D5 A7 67 9D A7 92 9F 3B AF 93 C1 32 90 B1 38
 88 BB 30 FA B5 45 5B 1B 89 41 3D FE AE B9 12 FD
 A4 BA 15 73 AB 8A 3F EE FD 35 81 06 46 65 C2 23
 E8 C3 FA 82 25 4D 26 68 52 D8 FD E3 5C F8 76 76
 AA 53 FF 1D B8 87 D9 B2 5C 01 D0 D0 75 6A C2 47
 93 62 D5 53 59 6A 86 4C 64 ED D8 A5 11 BA 1A 0C
 01 3F 2E 4C CA E7 8F 51 FF 26 65 26 14 E8 92 17
 99 34 02 DD E3 3B 40 99 42 CA F8 86 AB 25 EF 80
 74 8F 7A 35 0A 9F 43 4F 38 A9 BD 3C A0 7E E1 75
 D3 D7 DF AA EC 8A 7A 42 09 89 EF AE 39 28 39 85
 74 A1 59 52 5B C5 6D 79 69 A4 EE 2A 50 25 54 43
 4D 70 FD BF DB 47 21 87 0A AA 34 B3 79 8C 54 05
 79 FF 30 42 4B 43 96 3A 2A 34 52 20 A2 35 59 CD
 42 DD 51 5D 66 BE F5 F7 88 6C EE 83 FE 73 43 13
 E9 78 38 4A D5 6F D3 AC 00 A7 A1 2B DD 89 64 E9
 EE 02 7E 7D C8 39 86 B3 37 0B BF B9 5E 2D 82 16
 D7 2B EF 1A 76 1E CD EA EB 3B 48 EE 3B 9A 96 A0
 60 B8 15 6C 6C A1 01 CF 26 42 A4 70 C1 51 91 C2
 4E 9E 80 33 61 01 DC 6F FD 2F B0 8F F8 FC 01 CF
 1D 0A E2 70 43 4A BD 0D BA 65 84 09 F9 38 01 5D
 DB 4B 8A 07 7B 07 C4 2A 78 9A 6C 20 E2 7F 6A 5E
 ED 30 C2 23 4D 12 9D C7 DB 5A EE 5C 02 7D 6A 94
 33 C7 D3 89 29 E0 51 EE 62 45 AF D2 E9 77 D1 65
 E1 83 E8 A1 DF BB 10 8E 62 AF B9 00 3F 7A 04 73
 9E C4 55 23 1F 97 03 10 FF 9C 29 7C 5E 4B 0C 61
 70 A2 5A E1 80 1B 21 3D 1A A8 25 1C 11 25 73 41
 83 2C 51 E4 BE AA 29 52 04 4C 7C 13 69 63 CA 7E
 73 72 B0 E7 ED F5 BE A3 E3 68 77 1F A8 EB 5A 6D
 0D 68 41 71 EE DC 9F DF 45 2E 87 CC 8B 31 E0 B1
 D7 36 F1 90 AD CE 61 3C 72 4E CE 9A 9D BC FA FA
 8B 72 72 3A F8 F7 00 0E 5D F2 D9 6B 9D 52 7B 18
 D1 FA 11 38 EF 50 9A F3 4A 38 C2 5C 88 30 35 FD
 EA 6C 3A A2 C4 7F 47 1D 81 5C 1E A7 7C 23 27 B1
 0D 7A A3 CF 9A F4 D2 D3 81 70 16 82 C9 4D 8C FF
 08 C8 2C B0 DA DF 98 0A 1F 80 D5 05 6E 26 79 BA
 D3 55 DE 7F 13 B8 6E EC 8A 86 4C 84 94 12 B3 69
 7B ED 3F 5A 89 9C A0 AF 01 E6 D2 21 A7 F2 C8 23
 30 9A 4B 50 02 14 BD 04 8D 26 B7 CE C6 5F B5 83
 E7 1E 70 1B C6 B5 16 F2 F0 ED 34 B2 74 3D E0 D8
 B1 52 1A C0 2A 8E C0 C8 AF D8 24 3B 35 88 38 59
 52 5A DD CF 9E 45 A6 50 D6 E5 C5 9F F3 2C CE 53
 23 D3 B2 EE 90 DA D7 27 80 8C 9B DC E6 FF B7 F6
 B8 D7 26 ED AA F0 5F 7B CD 16 01 A8 4E 52 31 BC
 FD BC 5F 55 C6 6F 1A 3A F3 7A 5A 88 92 7B 1A 51
 95 FA 72 B3 68 05 A7 6D A9 D2 33 1B 00 3A 3F F8
 9C 87 FF 4A 91 44 E9 1E 56 DE 4F A9 77 30 C6 57
 91 84 6C EE 67 CB 3C 8D 36 E8 27 09 3E 52 F1 1D
 74 C4 E4 DD A6 D6 CB AB B1 25 2A 53 4C 06 58 36
 80 28 FC AB E5 47 66 96 3B 61 14 E6 17 B6 F3 45
 A4 9E 56 4C 81 5A 80 EE F4 4C 57 BE 2B 17 58 69
 67 AE 10 B4 F5 39 7C 76 89 9A F2 46 F3 27 5F 20
 51 B0 D6 26 FB 45 71 F5 00 B8 0E BD 7A AF D6 4A
 67 F9 3E 00 FC 80 71 72 66 37 22 74 0C 54 FC 05
 9B 8C 0A 16 8E FE E4 16 61 97 8C F0 A1 6D D6 8E
 44 2C A0 FE 2C 50 1E E9 8D 0B D1 6B F2 6D 73 1C
 9D 7E A1 E8 AE 91 2B 1D 76 1D AD 81 58 16 9F E6
 5C 81 2C A3 A1 4F AC DB 82 5D D9 FD 08 74 00 8E
 09 FA 85 F3 22 4C CA F2 30 F9 E1 6D C3 D1 14 E2
 A2 5F 38 A5 05 09 97 0E C6 72 95 81 91 94 ED A9
 25 B2 35 9F 9B 16 44 02 7C 72 8E 03 17 1D A1 4B
 23 BD 38 5E AA 02 23 F8 53 BD 74 80 70 D3 D2 8D
 9E 69 4C 74 C3 FB D9 09 90 58 84 DD 07 5D 33 02
 DB 24 0C AA 52 CA 53 99 A5 53 09 6D 21 A1 D5 DA
 15 38 B4 09 53 D4 F2 6C 3A 62 B4 58 40 84 9C CD
 DD 1E 0C AC 5C BA DC AB 1A 7F F7 04 B5 D3 7F D7
 32 2A FB B9 DD 5B CF 7F 67 9E 09 7B D6 5B 5E FC
 73 16 D7 43 A4 CB B8 E8 32 98 3A D3 C5 89 A6 92
 2E 9B FE 9A 37 13 B6 FF 98 98 59 98 72 30 C5 77
 DD BC 33 49 28 2D 45 61 78 A7 70 41 18 59 FF B2
 37 16 17 78 32 EE C0 5E 4B 63 20 B5 A7 54 55 ED
 D7 37 E5 98 70 2A 2A C3 55 46 08 3A 4C 9D 2B D4
 B4 85 A5 30 95 22 B8 E3 B7 EC 32 00 8E 83 7B 05
 FC 1F DC 91 85 A8 6F 7C 08 25 BF 1C 95 86 02 CF
 F0 DB 12 18 D8 A0 45 74 8F 89 B9 42 78 2C 64 47
 7F BE B4 58 3B 8C 18 38 00 38 9C BA 25 5B 07 A6
 64 D1 B6 59 B1 7A 28 32 85 B2 78 3C 18 58 4C 01
 E0 F3 C8 AE 89 0B 85 23 E6 63 01 C4 53 C9 D9 27
 7E DA B2 78 31 64 D8 F7 CD C6 B2 2D E1 CC 51 A7
 D5 80 EC 44 E8 F9 5A E5 C5 AE 2F 40 99 DE 83 F0
 13 17 21 30 7C 68 B1 B4 08 57 AA 63 65 5B CD 59
 A4 96 B3 AF DB D7 E7 F2 C1 5A B2 80 05 9C 2B A2
 E0 BD 74 C8 D7 09 C3 F0 97 33 DF 98 90 0A 79 55
 39 85 70 0F 07 3E 43 7D 72 79 F3 10 08 88 AC C2
 E4 77 C0 8F 31 8B 5C 73 FC 55 60 8D 61 1F A9 F5
 EF 9F D9 83 82 73 8D D8 21 51 30 9F 6B 18 59 ED
 8F 56 5A 70 9A C3 BF 02 0A 0D 96 4B 7E 43 61 69
 2F 21 2C 1D 38 9C 7C 74 97 98 0E 86 A2 BB 63 0C
 F6 69 8B 6D 26 5D 56 B3 5F 9D E5 39 A6 98 21 7F
 33 7D 17 8C 1B 6F 95 DF C1 A5 4D 63 3B 8E 2E 54
 08 A6 22 19 34 41 3D 51 0F 83 AD AF E6 5C F4 1C
 A9 47 14 04 C2 3E 2A 7A 47 AB 61 AC 1D 9F 61 16
 D2 DE 26 13 A1 68 A7 32 44 C4 B4 E0 D1 A5 B4 23
 4B 7B 81 56 84 00 72 0B 4E F4 9D 36 6B 42 75 C5
 32 87 38 49 2C 3E 7E 3C 81 AF 15 9F BF 19 A8 2B
 B8 40 5F F3 E7 FA A0 F7 7A 1D 70 3C C3 87 9E 08
 7E CA 84 B3 6F 49 EA D9 C7 A6 A4 99 48 37 86 CB
 3B 3F 45 22 34 7B 67 EF 54 03 AF 78 DB E0 13 B8
 CE 56 21 E9 7B E6 22 FB 5F 11 2F 24 81 09 D3 79
 D2 AD 73 EF 00 8D 85 25 14 66 8B 76 5F D5 01 6C
 26 E4 7E 87 9C 7D D0 2C BC 3D 70 72 7F FD 00 33
 44 43 97 4F 39 82 06 DA 6A 90 3D B7 61 7D 2B CE
 9B D4 E8 51 8C 3A CC BA C4 88 A6 22 72 A4 94 86
 1A C1 1A 92 84 65 7A 05 02 CD 6C 34 93 F9 A4 90
 06 43 84 6A 20 79 13 B2 FF 61 6C 4D FD 70 AE 98
 82 49 AE 25 77 AC 91 69 E1 48 1F 86 B3 C9 D9 1B
 A9 83 5E 9A 19 89 39 51 D5 CE 4C 64 5A 03 6F EB
 0F AF EC B4 18 DE 09 E4 6B C5 B7 4D 3E 68 90 09
 94 49 91 FE D4 B4 24 6D B4 68 4E 91 1F 20 C9 42
 E9 20 44 7F 58 05 48 77 4B E0 E5 6C 5B 02 04 33
 B2 11 83 3D DA 57 65 9A B3 AF 53 0E 03 2B 9C 04
 D0 D2 40 9E D7 0E 04 3A
* End 3002818163 3169003604