* LTspice Encrypted File
* 
* This encrypted file has been supplied by a 3rd
* party vendor that does not wish to publicize
* the technology used to implement this library.
* 
* Permission is granted to use this file for
* simulations but not to reverse engineer its
* contents.
* 
* Begin:
 93 45 43 E2 A2 72 FA 33 31 7D 0A 31 96 58 9A 45
 73 15 55 E7 19 3A C2 2E 32 84 53 3F F4 A0 62 60
 5C C3 96 9B 74 10 A1 BE 24 4D 8C 34 B7 68 3E CB
 33 BD 7B 3B EF 16 AB 65 8D EA 32 BC 48 78 AC 4D
 55 B0 79 E8 1A 02 06 93 19 BA 1D 6C 14 F5 0F BD
 BE D9 12 6B DF 9C 52 B3 C8 E4 1D 63 AB C0 21 A1
 8D 7E F7 F0 78 00 D2 F4 5C 42 55 48 54 D5 CE 9C
 F1 2B 32 77 5D 64 83 E7 69 97 0E 6F D7 33 BD 60
 A4 02 F5 FD 69 58 52 B7 AD 5E 80 7F 21 1D C4 F6
 B6 0D 65 23 21 ED 33 4E 12 94 CE A0 E6 BD 0F FC
 D2 12 DE 3C 2F F2 F3 B6 ED CB 9F E9 39 C5 F4 8B
 B4 2F 29 0B 55 7C E0 45 1B 9D C6 25 31 60 50 38
 9C 10 5F F7 FA 74 62 B8 70 2E 70 C9 AA BF 9A 55
 88 55 DD E9 15 E2 B2 8F 17 34 55 56 43 FD C0 D2
 24 E8 84 60 1E A7 34 A7 66 86 97 E2 F2 B3 0F F7
 18 89 19 BB E4 F4 75 FF 95 B2 26 56 B7 87 5B CD
 F3 5D 2B C2 CA B3 F4 6F 30 DC F5 92 35 5A 23 0F
 05 76 5B E1 96 00 C7 D3 F8 DD 5A 01 20 B5 45 F0
 24 2B 26 3D 9C 17 F7 BC 59 90 79 9A 00 92 C8 C7
 67 20 E3 79 57 9B E6 F8 CE BB D0 24 B3 9F 4B BE
 12 26 FD BE 3B 87 22 12 2F AE 46 5E 3E 0C 7E 54
 83 7B 5F EA 55 CB DB 1B EA A3 8F D9 A9 B4 52 AC
 88 13 F2 89 7E D8 DF CB 01 76 E8 82 EE C6 B4 7E
 4B D0 5C F1 95 5F C6 3F 68 47 E1 E4 A1 B5 00 CB
 99 A8 67 64 10 32 0E D0 40 AA 82 49 24 92 F5 D8
 38 27 17 94 36 C1 0C 7C B4 70 D7 A1 D9 B9 E9 FD
 B1 0A DD 20 17 9A A4 F2 4C B9 F8 2D 90 F6 2F DD
 78 83 C4 08 2E 99 A8 28 74 CB 09 3F A8 C9 41 C9
 2F 47 43 84 66 E9 A9 EC F2 BB 54 4E 1E D5 79 EC
 7E 57 D8 57 44 FA 73 B9 CA D1 3B 5C 64 73 A2 DE
 48 7D 90 9E 40 C3 7D 3C 4B 47 09 F8 29 01 00 13
 2D 32 68 3F DA C1 64 6B 42 A5 DB F7 EE 03 74 2F
 CC CF D8 AC 8D 3D 18 D8 4D 5E D7 D4 D9 35 0D 80
 D9 2D 39 D2 D6 0A 07 DA AE FE B6 C9 D5 BE 64 DB
 89 48 8F C6 1C 52 45 CF 42 D5 A6 C0 82 D5 B6 A9
 01 91 A0 E2 11 CD BA FE 57 DF 3E 3A 4C 7F 25 DC
 6E 56 B3 63 F8 F7 6C B2 FC 24 9D 2D 36 91 F9 39
 86 6C 59 BB FA DA C7 E4 93 66 5C 0C 6C AE 46 A2
 F0 B9 1B 4E 56 A3 D9 0A 64 17 7F F8 B2 DD 98 34
 1C 7D DA 14 AA C8 08 12 2A 6C 19 02 CB 0A DA 7C
 6E E8 34 01 AC A2 BC 6A B7 07 0C 0D 3F CA 52 4E
 E6 BA 0F 35 BE F6 C9 28 EA CC 9B 62 AD 51 62 3F
 CD 00 4E 51 10 AB 2F 7A 12 B2 60 90 D2 0A 9F C5
 10 DC 79 D5 24 0D 8E 2B 84 01 A6 C2 13 C1 66 6E
 77 70 A7 E8 46 1F 4A 8B 38 13 27 9B 07 1A 4A 09
 B2 F2 95 D5 D0 88 CE 2C 27 B8 38 F9 15 65 AC 00
 B5 59 C7 25 03 F7 A1 8B 8B 03 15 B6 E4 02 D6 B8
 24 DB 41 BF 66 7E D0 66 E5 17 74 E0 8C 81 9C 9B
 55 44 0E 27 46 99 C4 58 63 B5 94 A1 01 EA 36 87
 18 1C CF E1 A4 6D E0 B4 7C E5 80 78 6D 7A A4 E7
 73 F7 BA D2 F0 81 D1 14 D6 76 FB 7E F4 5D 57 51
 70 E5 6D 90 39 AF CD AB CF BC 72 BE 49 91 29 72
 44 70 2B 10 52 BE 27 2E 67 65 03 81 01 B0 C4 AF
 E0 E4 38 BE 58 BB 21 6F AE EE 0E 39 96 F9 FC 87
 75 BC 4D 3E F7 DA 6A 56 6D D2 18 F5 8F 03 DF 7B
 39 4A 48 8F A4 AB FD 87 B6 06 5C F7 A7 14 72 BF
 24 20 EB 9C C0 A4 80 C4 51 08 F7 4A 37 CF EC 35
 5A 50 37 EC 79 40 7F 6E FA 66 9A F4 D3 B8 1C 55
 3F 41 96 86 4B C3 63 95 F2 D5 10 FA CC 00 9D 37
 CF 18 2E 23 F3 75 C5 B5 B0 D1 66 85 A4 31 FD 8E
 6B 80 DA 68 32 FD CE 21 C0 EA 85 1A C0 28 0B 0C
 07 BA 08 55 9C B9 31 E9 74 9F 13 C0 17 76 78 EC
 93 5C 18 1C 71 8D 7A 6A 10 FF BC 26 F2 5B 62 BC
 08 A2 16 E2 17 1C CA A3 B4 DD FD B4 09 F0 F5 80
 2C 8D CB 45 B2 BF 8F D0 43 61 F1 A8 35 73 5A 65
 A1 68 BF 77 0A 8D B1 03 E7 3C C7 D7 EC 5C DB 12
 13 7B 49 CF 33 EE 9A DF A0 CE 2D 71 F6 46 70 50
 AC 57 62 BC FB 67 BE 0C 46 10 0B 88 51 40 C0 94
 14 F4 D1 34 AB 7A 2D A6 6E 7F 71 A7 B7 74 C7 FE
 8C 6B D1 91 38 55 F0 11 B4 C2 59 8E C0 07 E1 0E
 95 23 21 0D E0 5C 9A 6C D0 6A 89 2C 6B 7F 5A 73
 1B 7A 59 72 31 FE 9D E1 3A E3 14 90 BB 79 C9 22
 1D BF 25 4A 39 D6 2D 7B 9C C1 25 BD 2F F6 C5 D1
 4B 00 FB AE 90 E4 2A 60 94 B0 32 E0 40 5B 98 3C
 81 B1 46 46 0F 03 FF 7B 66 7A 4E AA 3A C2 6D FA
 CA 68 08 1D 9F F9 1B 48 29 2F 55 8D 7A 3A 8F D6
 76 D6 BB 39 3A EA 2C 52 8B 9D 8D EC 60 6D 3B 0C
 FA 80 C8 65 40 A5 BE 9A B3 FC 94 7E 49 36 68 D4
 09 44 53 9E F6 9C 40 E1 D0 21 CE 72 1F 03 A8 8F
 20 8B 31 60 A5 B7 6B 55 40 46 F7 91 96 C6 40 A5
 63 C7 38 05 E5 9E 56 D1 7B F8 5A F5 33 7E E2 48
 44 6E A7 E7 A0 87 86 0F A0 07 3B 6E 5C 8C EE 21
 F5 87 C5 9F A5 85 05 71 B3 DF DA 99 83 1D 47 E8
 69 F4 8F 53 B5 10 7E A3 35 18 0F 05 3D 2F 80 12
 4A DE 03 26 1E 89 8B 4B 0C 75 C3 98 FA 7A 01 58
 1D 43 93 79 FF 31 B7 6A 7B 21 C9 32 D0 0E B8 3B
 AB 92 52 92 52 5A C6 3E 75 47 97 3A 44 6B 93 0A
 7F F3 53 07 31 23 CA 0D C8 13 3A 12 A8 A9 3D 52
 4B E0 B3 24 18 F7 8C F8 ED 05 62 FC C7 6C 4F 9F
 94 4E C2 2C 67 4D BD C7 F7 86 49 E7 55 FF 82 CD
 F2 A4 F8 2F 93 33 19 4F 25 BB C8 79 23 43 F6 E0
 3B 76 D0 5E E9 76 3F DB CE D6 DD EE 29 29 BB 16
 7C B6 54 E2 62 59 63 85 7C 69 4D 67 06 5C 43 6F
 9B D6 05 C0 5C B7 AA 81 0B 62 A8 9B 08 24 40 38
 96 0E 52 3A EE 4C 27 BC B9 4D 06 DD E5 C2 BB 04
 5D 63 E7 90 53 BA F9 7F BA E2 DF 99 EC F2 94 8E
 38 E6 77 C7 DE 9B 67 E3 6D 29 2B D9 1D 5B 43 4B
 DE F1 CC 9F 63 7F CD 0A BF 7C B3 5D 2E AD C0 A4
 57 56 F8 8C 06 2A 27 B8 5E AA E4 C1 7A FD 99 76
 0E 9E 06 27 3E C4 53 5C 8E 0D E3 2A D9 B3 D4 20
 64 0D DE 7B CF 5C 93 59 B3 6D 73 50 DE 2B 48 42
 B2 08 AD 64 91 DF 7B 77 13 20 5A 76 20 98 3A 65
 FA 24 FF 8F 90 92 EB 38 64 A9 75 64 77 F8 38 F7
 0F 9A 75 77 86 4D 5D E5 6F 2F 02 E0 30 4C FB CF
 72 BE 4B 78 04 78 2E D9 39 A0 9D 18 84 74 39 6C
 85 1E 09 BC 1F 11 80 B8 14 5F CE A3 04 91 E3 04
 B2 47 C2 7D 00 46 AA F4 AA 67 B6 3D C1 C7 59 F7
 0B 00 2F 40 D6 01 D9 2E 58 A9 5A 0F 97 40 D0 24
 D6 B3 9E FC 4F 27 38 46 2B AA E5 2B 3A 4E 1A 0B
 A3 9F 45 0E 65 1A 65 9B 76 7D 32 5E 79 4E F4 F6
 AE D6 07 E6 04 5F 44 11 DB F3 7E 98 4E 75 AF 5E
 F2 AE 74 DF F3 B0 C9 B0 DE 04 50 9C 74 B5 75 7D
 D9 B4 42 9C 56 7F 49 58 0A F9 DC F5 B0 F0 C7 3A
 C5 18 3A D0 3F 56 3A B6 6B 4E 17 C1 DD BC FB C6
 67 3F 10 AF BB 34 7E 22 FF 1A 78 E1 79 2C B7 DA
 17 07 75 D5 46 14 F9 40 30 9C E6 F2 FC 79 B3 6D
 7E E5 AD 61 70 2D 5A 4E 3C 61 36 B4 3C 61 61 C9
 88 0D 6B 28 28 EC 97 43 53 5C 95 9A 36 8A FA FF
 0A 83 D2 E0 88 FC A2 EA B7 81 B9 C7 23 0F 88 A7
 E9 B0 A3 90 B1 70 42 CD 63 1F 44 44 4F 46 8F 79
 64 0D D4 F9 B4 45 95 D1 1F C2 C7 6A 17 D3 67 9C
 2A 48 15 E0 76 71 6A 1F 94 19 AF 41 38 E9 32 69
 4A C9 EF 2C 6A 12 52 47 E2 76 C5 60 22 29 BB 78
 3F DF AD 28 AA 8C D3 44 62 FB 30 BC FF 18 5E C7
 A7 F1 98 D6 A7 46 6B 6C 18 73 54 E4 0C BE 8D 64
 D9 46 A0 7B CE A1 D1 7C 85 48 36 CC F2 98 9A 13
 2B C7 8F 94 6A 25 20 F3 83 8C EC A8 CE D8 BD 1C
 96 DF 2C 97 27 DA D4 F2 01 14 18 18 16 BF 47 6B
 42 F2 4D 97 CF 01 49 01 F0 17 9E 2E 59 53 72 AB
 11 2F E7 C8 9C D8 D3 A8 06 10 B8 09 11 8F F7 B8
 42 C4 A4 AA 9C 7A EF 71 EB 30 89 91 F5 58 49 D8
 9D F2 E3 A7 8E 1B D8 4A 67 51 44 51 96 A6 6E 23
 33 26 62 F0 A9 B1 BD 77 AF 7E 21 6F 7E 21 14 36
 DC 5A 24 25 CE B1 F1 37 4C 60 70 5D E6 C2 15 76
 64 36 D5 F7 7A EA 64 61 5D FB F8 65 C5 43 12 40
 D4 43 D9 4F 1B F5 0B A7 3F C9 DC F1 FE B1 FD 59
 2F 61 3B 7E 8E 46 73 34 C1 89 4F 0D 94 91 48 73
 A6 5A 2F 64 00 F2 0D BE 9F ED 71 F7 E2 B7 B8 4C
 A1 D8 A0 65 FB A2 64 22 7A 92 97 EA 56 A7 C8 64
 CE 90 4A 42 51 38 5A 56 B9 97 97 A1 C3 E0 E6 B6
 59 DD D9 AD 0B 30 A1 C9 57 9B C1 96 4F 09 E9 9D
 DF 83 34 CB 20 3B D9 92 31 E9 19 42 53 40 4C A0
 B9 BA 3B 92 D6 7C 5E FC 3C 79 57 20 C1 07 C1 29
 2A B2 E2 AA CC 74 F9 02 9E 76 28 5A 05 FC 19 19
 DD 44 7B 5F 13 CF 20 19 48 7D 0E 45 E1 09 89 CB
 18 CD 0F 52 AE 69 A8 0A C3 8D 50 0C 53 E4 79 66
 1D A1 6F BD 72 C3 20 99 42 75 C1 EF 19 20 97 7A
 78 01 3D 91 34 BA E9 EC AA 57 56 C7 0F EA 1C 8D
 32 0B A9 1B 95 64 5E ED 08 F3 3E A7 D5 A1 F0 B0
 F9 8B AD 19 F6 D7 95 BA 32 59 6C 6C 14 D0 70 D3
 0F 90 1D 6F 43 1D 90 C2 B4 36 66 81 07 D1 E9 CE
 D2 F3 12 53 82 A1 F2 2F 0B 44 05 8C 03 38 50 DE
 D4 CB F3 BB 38 D7 27 4E FE 68 F3 0C D7 24 86 C6
 46 A1 CB 71 3A 7A 7C A6 A2 3A C4 B4 BD EF 2A EC
 64 5C 2D 50 A7 EB CF 0A 18 EC 1A 11 CD 9A 4E EA
 1C DF F2 FC 94 D8 C0 38 9E 38 93 99 09 D2 D4 FA
 37 7C 15 22 E6 3D E1 42 A1 71 73 1C B9 71 4B 67
 CE 44 DE 42 34 61 9A D8 75 3B F3 87 32 6D 28 65
 83 F6 A0 C4 C9 5C 40 4F F4 6C 87 B0 DD 46 6A 6F
 93 47 DC 13 E5 D2 A1 E0 40 3A 7E 36 97 F7 D0 7D
 CF EE 28 8D CF F8 C7 E8 BB B7 30 17 23 83 9D BD
 8A 10 92 F0 70 A8 71 E0 51 A2 51 28 C0 2C 6E 92
 D7 B9 D3 FF C0 EE 6F BE 78 D6 90 5E 85 67 2D 1B
 0E 20 85 86 4E 47 79 3A 15 94 2D C9 FE 8B 37 63
 FD DC BC 1D 1F D9 37 3E 5F 15 0D 6F 04 A0 07 E6
 D7 8D 7C CB 0E A1 51 7A E5 CF C7 F6 C8 2B 7E FD
 75 E3 EC 09 38 85 AE 2B D4 7F BD CC 9F D7 B0 D3
 7F B8 80 5D D9 79 78 75 BC E9 64 0D 4C 41 50 33
 02 6B 3A 9B B1 E0 1A D5 1D 05 E4 C7 44 A8 20 BB
 AB FA C0 BE F3 70 E2 F1 F8 68 85 D4 6A 7A 3D 35
 31 8D D6 A3 32 53 4C 11 FB 8F E7 22 22 45 C5 27
 FB 64 E4 BD FE 7F 10 8E DE 5B B1 3F 10 10 CA 18
 D9 E0 18 28 24 21 0D A4 B4 30 3D 78 06 88 AC D9
 47 D9 44 3D C1 F8 76 42 E6 B6 11 DC 49 C0 28 19
 99 56 94 28 93 56 64 0B 09 FE F6 BA DB FC EB F0
 FD 53 03 4A FC 19 D8 1D FE 7B CC 3F 15 47 D3 09
 3F 61 2C CA 55 9A 06 D3 10 3C B8 59 F4 BA 81 FB
 2F 86 B2 91 FE 87 67 4B 0D F5 4F 35 14 D3 03 90
 4F CB 12 84 52 AE B2 C9 17 64 D1 86 24 4F 27 A2
 AD 9D 52 B6 9A 6D 1E 61 C8 C8 88 E9 E7 55 AB D0
 ED A7 53 3A BE F4 E2 49 14 29 B0 75 E8 0A 4A 4D
 BA 41 E9 48 BA C5 C1 8F 79 46 12 9F 05 CE 17 ED
 BC 03 86 2A 78 F9 33 CB E9 0C 6B 8B 15 2A AC 01
 3E 11 6A 1F CB 26 CE 2A 2E E8 CC 5A 0F 8B B7 A8
 F5 28 B2 10 3E 62 78 23 F3 60 25 D3 65 FA D2 E6
 E2 0D 78 50 CB C5 59 D6 5F 12 67 80 E9 04 B1 37
 B0 AD 80 27 26 CB 69 35 06 A1 8B 2C 0A 16 30 DA
 88 36 98 09 B3 83 85 7B B4 6A DF D8 B6 AF 28 87
 01 F0 DF AB 37 02 86 48 CB 39 66 8C 49 ED 19 D1
 8F B5 34 B5 74 D3 7A 54 C4 37 75 98 2F 8A 09 C6
 BE 59 54 51 47 9C DD 88 C5 53 04 B5 17 92 61 21
 14 EC 4A EF 5B 6C 84 60 2B AD 54 08 1F 74 6F A8
 81 11 50 54 A7 02 35 6F 4B 05 91 C8 19 E9 69 1A
 AD 58 3B 9F 54 26 9D E5 CD E0 4A 1E 43 10 69 48
 95 9C DD F4 63 DF EB 3B 58 8A 8E 9C F1 34 71 B0
 18 7B 0B D7 B3 79 A5 F7 E9 17 34 0C 8B 24 1F 90
 3C 8F 33 BF B9 4C 87 8B 9B F8 35 1C 8E 67 7E 34
 93 C4 1C C7 34 AB 43 2E E7 BB 27 11 E7 04 29 A3
 F0 D2 C3 7E F0 01 F2 CA 54 42 18 F2 C5 71 3F 67
 6B 09 AD 82 CC 17 93 C5 C9 A0 76 0D 8F A5 68 2D
 8D 00 29 00 BE 3B A1 87 CB 50 44 8F F5 46 FE 22
 F3 8F B3 BD DA C9 92 E2 C5 31 8C 96 7A 10 B9 A7
 12 6D 19 74 D2 5C 82 2B 28 3B 4E A7 23 59 F3 28
 2B 61 0E 7E 05 79 B7 0A 78 B6 EF 25 52 7E 78 C3
 22 65 4B F5 63 07 12 AD 8D C9 1E 9A 03 4F 78 04
 12 5C DE 3E 8A C1 B4 E1 7E E8 23 37 B9 A7 C2 A0
 C6 E9 DF EB 10 08 B1 F0 12 14 76 86 FE 9B 39 94
 CD 47 7E 01 C9 B5 76 A1 2B 37 49 2B 76 2B B6 7A
 53 DA 07 D8 06 5F D1 77 F1 53 4C F8 22 2E C9 87
 03 07 9F 85 46 9E EC 79 1C CC 19 2F 43 C4 8A 1D
 30 DF 0B 57 F7 23 49 78 B6 D8 31 DB E5 EC F6 2E
 B1 9B 66 05 BE E2 A3 EA AE 85 C4 FB 39 C3 4E E7
 F6 7B 56 82 C5 C0 BF DC 70 DB CC A4 E5 52 52 37
 40 37 FB 0C 13 3B E3 73 AD 8F BF ED 9C 90 9A 1C
 08 9A 14 E3 B1 D1 46 20 43 58 CD 3A 54 1A F5 09
 0A 62 35 BB 3A FE C4 90 C8 B5 26 E8 8B 9B AA D6
 34 AD 99 25 5D 5F 79 C0 EB C8 C3 1E 8D 2A A8 6E
 2F BA 64 68 0E FB BC 05 E4 9C C1 61 17 B6 5B B9
 C7 9B 66 EA 47 BC 27 B2 20 09 BD FB C6 DE FE BB
 79 35 F4 43 BB BA 20 CC 36 52 EE A2 94 22 4C AD
 D0 CC 12 B9 7E A9 DA E1 8C FB 33 0E EF 75 68 7A
 67 09 02 76 53 86 1D 96 F8 A1 FA C8 F2 2B 01 C7
 32 7E 40 C9 D1 7B 7E 43 8E F2 3B D1 BE 96 42 2D
 D4 70 50 DA 8A C1 63 2B 0A 41 98 47 BD 33 38 DA
 AC 94 7F 7F BA 00 DD E3 93 0E 39 33 A1 92 AE 2F
 CB D6 54 2B 9E 52 92 E9 2F D9 23 2E 48 B2 C3 6B
 E0 FD 96 64 45 CE 5F 87 63 F1 7F 6B F2 BB 53 43
 48 73 4A 0D D4 EA 33 3B 34 1C 11 9E 28 9F 5E 31
 09 2F 1A C7 C8 EF 7C 61 D3 1F E3 1B C2 FA C1 96
 FE DA 3B D6 49 B1 5C 82 68 43 05 9D 2D 46 BA 17
 34 DF 12 65 3C 69 B0 78 BB 5F D3 67 9E 3C B7 74
 DF F5 5F 19 BA 46 5B 69 B3 41 B7 4A 55 CA 3C F6
 55 85 05 DE D7 91 ED B1 A7 FD 6C 38 0E 4B 8A 77
 83 AF A8 D1 1E 73 0D 61 5F 56 0A 0E A1 13 D0 CA
 CF 5D F6 96 84 58 AE DA AE 71 40 06 2F 5E F9 ED
 8A 45 7E 2E 60 6A 50 67 44 BD 3B 24 F9 69 F1 04
 EA FC 3D DF 0A 8D E1 ED 80 9F D8 CC E1 37 6D 79
 F9 58 BE 21 C6 79 A2 25 A1 74 15 F3 BE 1B 88 D8
 0F 50 C2 93 F4 6C 33 3C 06 CD 01 40 90 E8 7B C7
 26 2B 88 3E 38 24 5B 4F 5D 7C 76 E4 87 D6 60 8C
 DA 6F 1B BB AB 44 44 15 DF D2 05 59 85 35 5F 0F
 30 AE 4F FE 6E 7D 7E D8 E1 56 67 2B 14 BA E2 E8
 EC D6 E1 4B B3 D7 3A 53 C6 E0 D4 C3 80 B5 DE 89
 84 ED 74 97 42 A9 ED 0B EC 99 BF F3 C5 45 27 76
 B5 F6 6F F2 E7 05 3D 6F B5 D2 40 10 65 BB 7F 95
 BA 1A E2 DB F0 74 2F 2A 12 40 59 83 65 31 DE 8B
 9B 32 9F 58 EC AE B5 EF 39 BC E8 FD 70 FC FF D7
 D7 91 0C E5 AB E7 EB 94 DA 3A BD CE 33 8D D5 8F
 AF 74 DE D8 FA F2 21 70 27 D3 D1 AC 6F A3 DC 0F
 4D 12 23 E5 64 D0 44 17 4C A0 DF 9C 1B A4 46 00
 6B 6F 17 5E 65 D5 FC 33 6B 7A 62 12 0D 69 18 5A
 25 5F 26 75 6A A5 7B 87 4C D9 9A F7 7B 48 EC 32
 D7 49 7D A8 0C 57 04 B9 B4 1D F8 8E F2 CD 29 A7
 65 D8 E7 CA A4 EA B3 0A ED C8 69 F7 8E 93 AA E9
 AF F1 15 77 6F D9 0A E0 68 4C DD CF 3B 7E A5 5D
 DF A4 94 B5 40 72 B8 A1 63 76 AE 0E 71 DA E2 7F
 8A 70 E8 DF 30 C1 C5 EA E8 86 3B 4F 0F 62 38 E9
 A2 73 41 64 86 32 C2 B1 2F BB 0A F7 F4 46 A3 CA
 71 B0 A7 04 5A 73 9A BB CF A2 D6 9E 1A 44 45 6E
 2B FD AF 69 17 87 A0 B9 F1 7D 66 39 4C 52 FB FB
 BA 09 F4 DE AF D4 D3 F6 28 53 07 D8 9F 03 D3 76
 3B FE F1 8C 7E 29 51 8F CD 32 C2 4B AA C8 D9 8A
 70 E7 99 42 9A B6 5E D7 F0 DF BE 7E 38 90 56 D3
 43 FE 24 80 2F 32 B3 45 12 2E E3 D0 36 45 4E 44
 47 C5 2E 9B BB 47 46 4A 83 BC D0 E2 A0 A7 E1 2A
 44 53 05 EC E9 38 5A 2E E8 A6 39 CD 60 33 0C B4
 3B 18 74 9A 2F 38 4C F5 80 94 4B 18 5F 5B A2 E7
 BE A0 12 3E 8C 3B B3 37 87 73 69 22 4A 33 95 72
 29 BB B0 32 AC E5 20 CE 4B CE 35 49 BF D6 08 71
 1A 5A DB 81 EC D9 40 8E A4 F9 26 AA F5 F4 04 C1
 1C D2 15 C7 66 E0 D9 A3 CA 08 9C B3 52 A6 F7 42
 42 B9 A2 29 78 1A C8 5C 0C 2C 92 DF CA 44 DF 47
 10 71 7C CC 37 5E 71 FF 29 E7 F8 F1 F3 3F 64 01
 86 E8 64 F8 0A 1F B7 66 35 6A C7 F0 5B 3B 26 C7
 48 F1 5D B1 34 7B 21 23 5F FB 45 E5 32 A3 F4 57
 11 88 C3 7C 7B 0F 1F 2D A9 0D 23 D7 13 2F 1F 57
 08 51 A5 02 13 C6 EF 6A 8E 43 A8 AD 5C CF A0 21
 0A 6D 10 09 60 A1 CB D2 70 CD A7 B4 C7 38 B4 27
 92 13 B9 9E 89 29 55 E1 FF E9 18 BF B3 07 02 4E
 E6 B1 30 24 03 E5 D9 B7 CB 26 36 75 A1 89 E9 14
 4D 84 1C 0B 5F F7 B8 5A 13 FA 93 54 34 00 84 A6
 04 AD BF 23 F1 E4 45 87 F2 6F 9D 5F D4 EC 69 2A
 82 19 D4 D5 27 A9 1A 58 C4 27 97 BA 05 4B 6A 21
 3E 55 98 62 0E C4 B3 19 6D 8F B3 A5 3D EB 38 5F
 7B FA 06 FE 94 BC 3C FD D1 3E 33 80 3E 40 AD 44
 E0 65 C6 C0 28 CE 3E 2C 80 5C BE A0 EF B2 C8 2D
 15 6A FB 69 C9 05 2C EE B6 05 C5 39 F9 8C 6D C7
 17 FB BA AD 2C 6A 03 BF D9 E5 58 85 8B E6 49 50
 A2 C0 0E 56 AF 29 41 1C 9A DC B2 A9 51 F9 36 B7
 D2 63 4F DE A8 06 F7 82 33 AA 88 64 CA A7 6C 1F
 58 C6 BA 48 70 C2 FD E2 C7 DA 01 33 ED 2C DB 3F
 1E 76 40 D4 AD C1 BF 17 D7 EF 49 2A F3 3D 92 8B
 27 A6 20 17 9F D6 70 A8 7F 3B 4A E3 CC 20 2C 28
 64 88 35 C7 FB 70 8D F8 E2 FA E6 D7 BB 15 7E E5
 8F 76 CE 76 1A 47 30 D0 30 2C 7B 3E F5 5B 97 F8
 98 A2 CB C8 F1 9B E9 4E 61 D2 6B 15 D4 CE 5B 8D
 DE 89 95 20 63 AA 73 53 B0 6B E1 19 09 69 2F 2A
 82 33 EC A1 98 1A 68 EA 06 45 85 06 2C 64 80 94
 E4 57 9F DC 55 8F 91 A4 C1 47 6D C9 9B 10 FB 4E
 E0 80 5A A6 CD 62 FA BC BF 5E CE F5 9B 5C 9D 33
 6F DA 31 7D 25 FF 40 BC C4 03 B7 16 D7 95 59 91
 77 5D CE C4 1A A8 12 BE 86 A9 AD 32 CE 53 40 47
 82 7D 0A D1 6A 67 B8 DB 5F 5F 74 D7 53 8B 26 87
 D8 37 77 05 31 C2 8A EA C0 55 53 A1 CD FA 79 BB
 55 C1 62 8E 85 9F 6B 92 D7 42 BC C1 D5 8A 45 6C
 BA 49 32 41 41 50 6C A6 E3 0C 3F 87 CE 94 34 68
 49 97 06 6C B6 3E DE 18 A0 CF D2 61 25 7E DA 47
 2D 1E 4F 1C 71 86 BF FA 67 F4 B4 D7 0E 78 72 80
 ED 17 C5 31 F3 12 C9 6A 32 8D 5D 46 E3 97 55 87
 C7 FA 51 DB D0 B0 43 32 7A 48 71 29 52 60 43 22
 FD 9B F7 89 33 E2 0E C2 D9 E0 3A 97 6B C4 5E 68
 22 28 E4 FB 91 2F 6A 4F 7C A3 BE DB F6 9E F2 7E
 98 0A 6D 8C D8 F0 34 01 79 57 E9 DA 9F 6B 9B 21
 F3 76 E8 91 FE 84 84 C2 F6 0F 36 33 D4 52 4A 4F
 D6 A8 E0 5F 91 3D 4A 53 38 3B 69 F9 42 22 9F 15
 58 78 48 5E 9D FB 6F 67 DA 34 6A 0B 04 5F 83 02
 23 5E 39 9C F5 41 99 FE BA B4 BE E6 6A 89 8A 16
 8E 04 47 0F D1 B5 81 FB 43 AC 93 37 5C 74 D1 71
 EB 87 44 42 9B DA 56 10 39 1F 97 EE 57 1B 7D D9
 F3 08 12 A9 CD C5 66 6C A9 9E 52 46 68 B2 41 97
 AF 23 E9 6D 01 1B F2 55 DF 25 EF 39 45 14 F9 8C
 13 44 93 46 C6 C7 5A FB 5F 54 16 03 F5 7D 62 92
 B5 CC 3D C9 BD CF AE 45 70 22 42 96 BA 85 2A B0
 AB 39 88 9A EC 11 BB D7 10 3F 49 D2 AA BA 35 58
 EE 5D 8A 0A E4 AA 21 37 37 DC 60 7A 18 C8 9D D1
 1B 32 A5 73 D0 6F F2 D6 89 37 C5 87 DA 0F A8 27
 71 5B 67 2A BB 30 5A CF 90 D6 1D 77 12 E3 BD CA
 9E 1D 2F 20 7A F9 D3 C5 80 3F 65 3F 86 63 EA 13
 53 32 E0 45 84 3E 08 CA 04 D5 29 35 C5 07 D7 17
 C3 3A AA 57 7D 0E 46 8F F0 D6 EE 91 26 12 AA 69
 D2 15 0D D9 B7 EF F1 21 DA 16 B1 9B 8A FF F5 8B
 11 E5 17 E6 16 2C C4 72 30 DF 08 97 1C CD CD C6
 AA BC 40 49 DA AC 7D 01 42 53 1E F9 70 07 34 0B
 54 2F 03 DB 50 92 7A 74 CA 11 F1 41 3E 99 41 8D
 77 88 65 FF 81 8F 02 8C F1 E6 1C 07 BE 54 64 10
 97 E2 83 22 0C 7A 92 1F FC AE 11 4A 35 F2 CE 81
 6D 85 80 83 D0 2B 44 BF CB DC 8E 00 DC 84 72 D8
 95 44 AB D6 C9 79 44 3E 49 D9 0C B9 72 1A 5D 1E
 C0 41 45 BA 53 D3 64 AE F0 A3 E6 E2 CF 88 0C FA
 36 83 2E 08 A8 49 2D FF 5C 92 55 43 01 AE EE 4B
 8A 40 C8 BB B2 E4 B8 AC 68 03 45 C8 1D D9 F5 BC
 69 D7 DD EF 57 DA 38 25 6E FE 7F F1 A3 57 02 13
 98 6E 0F 1C 2D 89 23 A6 15 33 6B 26 95 AB F0 98
 B0 9D EC 51 8F 3E 14 23 85 4B 20 F4 18 07 14 C3
 B5 78 51 36 02 A1 FC 9D 07 B2 29 00 0B 67 0C 08
 3A 25 E2 4C 3D 13 13 E8 56 51 90 A7 64 96 2E 88
 A0 3E 80 D2 AE C7 B8 1C 9F 54 7E 0F F6 54 61 4D
 53 22 6C 88 A2 20 CC 20 F1 F9 9E D1 D5 89 AE E2
 B2 2A C4 A3 EA 3B F5 A7 96 90 E7 6B 20 1E D2 1F
 76 09 06 08 9D 9D 27 C6 78 97 C7 AB 10 2B 79 F8
 C9 EB 76 99 CA 87 D3 E2 97 54 49 FD 67 61 47 A2
 6F A9 11 D9 0F 74 BF 50 37 C9 56 73 E9 5A 4E 79
 10 4F FD D4 47 DE E7 FA D2 99 96 20 4A E9 4C 5D
 9A E8 78 EE FA FF 24 D9 70 58 6A 22 B2 26 E7 6E
 4B 82 DD 35 3D AA 2E C1 DA 36 FC 6C E5 57 21 D6
 9C 6F E2 87 DD 4E 6D FB 82 73 4C C7 5A 4E 13 6F
 D0 BA 11 A5 E1 2F 18 87 AE 0B 64 08 1F 2E 53 37
 03 4A B5 F2 C0 07 5A 9B 68 DE EC 88 BA E4 9D AB
 F9 FD F7 6E 9A 05 8E F3 AC CB 46 8A 7E BC 9E FC
 F5 B4 6E 6C 89 DB 8C 90 3D 6C FC E3 E3 63 59 B5
 F8 EA 7E 98 63 8C E1 63 E2 F3 D2 A1 80 ED A1 40
 43 85 3E BF 39 8E 31 78 5F 66 0D 6F 36 E1 E5 E0
 AD F3 7C 39 18 90 D9 4D 8F DB BF 70 E9 EF AC FE
 76 C7 41 31 DA 0F FA EA 2E ED 21 3B 34 5E 0B 5C
 4F BF 33 53 70 F1 11 EC B2 D3 92 2D 4D 52 51 DD
 98 84 AC D0 64 1C CC 19 3E 3A 41 5A 6B 91 B2 FC
 E5 A1 45 16 21 FB A6 E3 BF 29 81 CB 99 05 19 C8
 21 87 BB E1 EC 15 D5 A4 59 F4 09 12 BA 48 0A 63
 34 DC 38 ED 65 6C 13 87 A1 3B 6D FB B0 FE EC DB
 F1 08 47 3D A7 C7 31 51 88 D6 3B E7 E4 F9 62 B8
 51 63 EB 22 5A B8 3E 0F 6A B5 CC 75 75 DE 4B B5
 85 0B 67 EF 96 9B 65 28 61 2C 3B D6 FB F8 D4 15
 25 88 01 6D B4 28 FE 45 A3 00 FA 5D 58 B4 A8 72
 28 4F 74 B6 1B 9C 46 F1 D4 38 17 B8 4A 45 A5 9D
 F4 59 70 B5 86 48 89 6B BF D9 23 E4 7E B2 8B A0
 18 EF 85 37 33 2D 64 84 36 0A DA D7 B9 EA 45 39
 30 66 BE 6D 04 87 0A FE D0 98 9D 8E 8B FF 32 1A
 12 F2 D6 0C C2 20 91 68 AF C1 75 85 CA AC 42 F7
 0B 24 FC 7B 7E 26 08 EB E0 FA 16 65 E7 F3 B3 3C
 29 9B 4D F3 C5 1B B5 A6 AA 64 B1 08 12 8A 6D 63
 61 00 01 DD AF AE BE 6E 1F 3F CA FC 11 9E 24 F4
 44 DF 2C F4 4F BE E1 DA AB 38 6D DB 5D 4F 03 65
 77 5F 0D 70 1F 31 22 7E FE D8 0B 0F E8 5C F9 01
 E8 FF 86 70 B2 35 D4 F6 4A 27 6A 2B CB A1 42 A1
 22 1B 2B DF CB 53 31 95 8C 0A 3C DB F4 98 C2 9D
 6B F3 10 49 F7 3B 80 E4 84 F0 45 78 1C 42 B7 F4
 40 7C A2 02 73 C6 1F 6E B5 0B B4 FB D5 F6 7E 63
 1D 11 5F D5 5B B1 1A 58 5F 3D AA 1A 58 E5 1A 27
 10 4B A6 56 98 7B CA 52 EE 6E BE 61 14 D5 53 50
 A7 D2 5C F2 05 3E EB 49 52 47 95 6B 6B 5B 64 17
 57 0C 56 DF B7 E5 4E 09 29 DD BD 80 8B B0 B3 D5
 DC A4 8B 2E D6 25 F9 40 CF D6 D1 E3 63 B8 AA 6E
 85 B8 36 5F 37 F5 3D CB AB 1E 3E FE 9C EC 74 6D
 87 D1 1D 45 9C 16 A7 01 19 25 B6 19 F0 28 E9 62
 A9 74 46 1E DB 8E 7A C1 56 DE C5 A1 60 3D 12 B2
 90 DB 65 D1 80 50 C5 EA 27 F0 4A 74 90 64 16 61
 BF E3 C8 49 BA 8C 2A 40 08 50 0D 2C AA 35 A2 D6
 BF 7D E2 9A CE A0 3E 0B 8F 8A F8 28 7D 4D 39 69
 7A C0 BF BF B9 49 22 0C 0C FF 04 C4 F2 51 11 9E
 0C C9 F7 30 A0 CC 0D FB 80 8A 73 A7 9C FA E2 8D
 0E 74 3C E3 95 2D 6F A8 E9 6A BA 11 70 6A 89 ED
 F9 93 37 BF 8B BB 37 6A 8C 26 BE 63 2A 37 90 FA
 3B 38 AA 5A B2 F5 38 69 E8 D7 1F 39 81 78 9A DF
 36 D5 4E 82 D0 44 15 5C 78 1C 0D 6C EB 2C 4C 5D
 21 E6 B3 08 C4 14 5E 36 8E CC F4 71 65 94 E0 F6
 D9 CA 3C 45 C2 26 EA DD F3 34 30 A3 B1 39 84 49
 26 1F 22 2B DA 3D B7 84 B0 78 3E 15 F4 4E A4 15
 31 40 0B 78 DF 02 8F FE 1A 1E 4A 1E 4E 12 5A 07
 35 9E E2 D2 9F FD 28 E6 6C F6 9B AA FD F3 AE 8E
 9F 51 86 08 69 78 A3 4C DB 53 88 92 A3 C3 81 B2
 47 99 B0 74 5B 1E 6B CA 7D B1 47 9B 32 B8 C0 D8
 A9 CA B3 B0 D4 B4 71 CC 9F 61 65 DE 1E E4 EF ED
 6D 86 B4 0D D5 58 4B F0 1C A1 F2 A4 E3 2E 9E BB
 04 B9 7B EA 2A 1E 20 17 E0 3E D3 9C C5 F7 25 85
 CE 9A 1D 46 E3 17 C4 CC AE 96 39 A2 DE E1 05 AA
 2C B2 E3 F2 9C F6 65 B3 61 CE 6C 55 F3 90 FF 22
 D4 67 14 B7 BD E1 62 A6 21 6F AF D4 13 54 15 A8
 A1 D9 5E 38 6D 51 60 B5 BC AB F2 F5 45 ED 7E F0
 C4 94 61 EC AF 23 A2 4C D9 61 33 CF F6 28 49 D4
 96 1D 74 80 A7 0A A4 60 45 04 A1 FE 6E 84 3C CF
 9E 70 61 00 95 F1 90 5B BF 8F 8B 03 8D F0 BC E7
 F2 37 47 D4 7E BB F5 89 77 86 0F EE 62 8F D8 D0
 C8 09 B9 88 29 97 5C D2 66 52 0F 8C A3 85 6E 06
 F1 C1 2B 0A EE 13 1A 14 72 45 99 61 7F 00 70 A6
 27 D5 F1 DF CE BE 46 C5 44 84 91 BB E4 A2 7B DF
 88 2E C1 00 5F 92 98 9C E1 B6 B3 23 6B 0E B0 AA
 B4 6E AA 5E E7 56 E4 A4 84 CC 5D 72 F9 1A B9 5D
 48 98 BA 46 35 89 46 A6 B1 F4 2C 93 6E 48 BB 82
 A0 D9 91 B6 D7 C9 3D 63 02 C2 ED CB 13 7D 31 96
 96 3B 63 1A 7F EF BF 29 22 62 A3 D9 DF 4A 59 05
 A8 21 AC 44 FF 6E 05 1E 67 43 1F 1E 54 FE 18 BA
 B0 FD C3 65 D4 79 AA 2B 81 E6 BC 46 D0 A8 45 B8
 80 14 08 3D 62 F6 E8 1B 85 34 FD F3 C1 05 79 DB
 54 71 F8 A0 B6 1D F1 27 B3 56 4B 4F 32 4A 83 8F
 E6 4F 9F 15 99 15 3D 0A BD 35 27 A1 6A 59 B8 36
 CF F1 71 54 54 21 73 87 6E C5 E9 07 A1 02 4C D0
 54 D1 B9 AE 44 A9 33 AA F1 70 05 2A 6A C5 22 21
 D3 65 D1 55 11 6E 2C 7E 6E 8C 1F 51 41 D6 2D 6D
 16 98 C4 1C C7 45 E3 A4 A4 03 65 94 17 AD F9 1F
 C9 5D 2F 45 1B 85 A3 2B E3 D4 FE 63 1B E2 67 4D
 53 A0 4E 89 C5 2A 1F 14 2E 3F 28 AB 6A 2C 50 73
 7C 44 22 D9 3C 6C F9 BF E9 81 3E 83 18 5A 2F 43
 52 85 F9 CB 82 D3 6E A0 AF AF 7B E8 5E 47 0D 31
 9E 59 12 DF 6B 6D 2A 75 CA AF F4 C5 20 4A C1 2D
 CD 2C 8E 52 91 53 55 1D 8E F7 A3 30 20 05 EA 66
 1F 00 D0 B7 80 C2 9A 72 8C CA 6F 4A 13 D8 1A D5
 67 6A DE 0C DF FB 28 E0 D7 24 37 C2 A9 6B 6D E9
 44 FC F0 40 BD 47 66 93 31 25 89 D6 8C 88 52 D2
 17 72 BE 8B 35 B1 5F CD 37 DC 33 13 69 32 79 4B
 3A C2 DE 64 03 3A 9F 92 40 3C DA 0B A1 22 C1 F8
 4D 9F BA 1A 6F C2 D1 EF 5F 78 83 8A 5D BC 39 99
 5B 0C E3 81 CB C1 46 D5 7A 78 2D 76 9D F6 42 59
 3B 73 D7 B4 58 78 64 1C E6 F9 83 41 B0 C9 6C CC
 3C 23 58 F1 52 3D 2E 43 D5 EF 8F 58 C5 4C 9F 03
 1D 57 12 A6 EA 08 1F E3 1C 0E 30 5D 93 3A FA 96
 DE 66 28 F2 84 E4 9A E6 71 CA 6B A3 FC 40 3A 94
 DA D5 0F F8 43 23 12 B9 DF AA 1F D2 2A 18 83 71
 C5 47 B2 15 45 26 43 FA DD C3 EE 20 07 4B F0 09
 5B 59 08 CA A1 A7 65 88 65 20 BF F3 16 03 1C 51
 2F 32 68 10 95 7C 49 7D 59 27 B0 37 AD F9 A9 82
 2A E5 85 EB E4 CA 37 DC 42 EC D8 84 C4 58 A2 07
 04 35 6B 06 65 34 48 7C 45 91 56 9E 1B 19 BE E4
 4B 39 4B 78 D7 49 7F 48 07 D6 F9 17 C4 CC 3A 60
 CF 63 FB CD A5 A3 0E 06 E7 2F 0D 50 D5 18 94 A1
 86 83 E1 7A 93 50 A9 FF 65 6D 30 E6 3F 9B 1F 4F
 68 D5 60 04 6E F8 3B 54 98 C9 94 17 93 F4 6D B2
 19 2D 9B 34 01 F8 B5 84 5C D5 33 A8 3A 53 25 2E
 83 CD CF BA 30 5E F2 8B BE 4A F2 1E DD 74 35 B5
 04 7A B1 97 AB CF CB CE 32 F7 A5 56 C4 F3 D8 CA
 C0 FF F0 47 9F 44 D1 89 70 53 DF 9A D6 4C 01 F8
 9F 09 29 8A 37 09 A8 D9 DB 62 4B 28 12 0B C9 0D
 28 5C 88 7C EE 99 2F 79 25 36 70 B3 18 E9 14 2F
 E7 91 56 98 CA C7 AF 24 17 CF E0 BC DC BA 63 3E
 39 EB 2F 72 A6 57 BF 19 C3 D4 DA 8C D9 37 22 EC
 F3 FF 3B 52 30 8C 21 A5 F0 21 0D 2B FB 7E AD 20
 EB 65 AF 4E 5E 44 17 1B 34 CD D7 11 0C A0 14 A6
 1B 9C 58 76 3B B7 82 82 81 EF 6D 9C 1D 66 2E 11
 F8 C5 E1 42 88 C0 92 45 EA 5B 15 52 BE EC 50 C2
 B2 1A 04 41 1E F2 E0 52 44 E4 D1 FA 57 0F 83 76
 AA 84 75 35 AC 54 44 09 93 C5 27 4F B4 A9 B8 A0
 3F 9E 67 A9 CB 25 D3 E2 26 E7 2A 49 22 70 09 7F
 55 E7 48 D5 F2 92 9E D8 66 01 42 56 E0 7B 32 0A
 49 0A FA 16 8D 5C E2 EA 56 CE 5B 24 E0 56 BF D2
 85 68 43 E7 D2 2A 19 05 5A 40 0A C3 96 D3 0C 57
 EA 32 3E 3A BD C3 22 7A 5E 60 4C A8 08 CD 5A 15
 BD 38 B6 FC 3B 0C F0 83 7F 96 9C F9 8F F3 82 E8
 57 04 97 F9 A2 0A 70 7B 8E 89 AF 38 0D 62 2A 30
 AB 20 5B 2F 4B 84 EF 80 7A F4 58 42 AF 6E 71 9D
 05 51 36 85 74 00 0D 64 BD 20 6C 56 39 94 C2 23
 1B FB 05 9B 00 C7 C5 41 D7 DE 16 A7 E6 D6 D2 AC
 8E 8B 50 55 66 18 39 A3 A8 F8 2C B8 21 12 F9 FD
 6E 11 F9 85 21 A8 1A 98 D1 20 27 B1 D4 12 2A BC
 C6 1F 9E A1 06 82 54 AA 11 EE 1F 21 31 BD B2 9B
 52 FF 29 38 2B 8D 76 E9 48 DB E9 5C C6 13 D2 8C
 10 AD C3 86 E6 A3 2D 48 48 CB 4C 81 56 B4 FF 86
 45 CB AC D0 3E 85 19 11 A5 10 FD 43 EE BF 48 4C
 18 85 66 04 AD 6F 56 EE 6E 72 FA 08 DC 72 BE 9E
 3A 14 64 EE A2 6D 60 D4 CB E8 A0 D0 9E DF D0 B9
 60 F8 1A 25 5F 59 5F 73 4D F5 C3 A1 D7 FF 5E 74
 16 56 5F A9 F5 61 F0 F0 29 40 01 4E 12 6D 8B 2B
 A2 3C 2C 92 ED 84 C2 9C E0 CF 56 BB 9B B2 BF 00
 13 40 39 A4 C6 42 8C 88 92 74 85 34 F5 C6 89 16
 1E 83 52 CF 91 8A 21 E8 D1 27 A8 0A BB 68 34 65
 F8 8E 60 5B 80 08 75 1F C0 36 59 DF 39 17 BB 9E
 17 96 A7 39 06 2D 85 CF 3F 2D 3A 55 50 76 42 8C
 19 08 E6 55 E0 46 F4 F1 E4 40 60 D0 C9 79 85 CA
 BB 9F C4 71 2B 72 6D 21 E6 A6 A8 09 8D 78 36 94
 8D 47 45 8B 65 DC F0 D7 5C 68 A2 81 45 88 61 FA
 9C 13 0F 37 A6 64 7F 86 C8 23 2B 5B 5C 8C 5A 3D
 99 7D A7 46 0C 5D 4D 64 CD F9 36 A5 A7 45 7E 5D
 9A 50 83 FE 4C 27 39 2A 32 1C E1 2B 50 2A 95 29
 F8 9A EA 3E 61 DE A1 B5 04 69 1D 21 A0 32 DD 88
 FE 68 C3 51 B2 15 27 4A 7A C9 46 66 B7 C6 B7 D4
 2A 77 D3 DE 9C 01 07 C2 A3 C2 DC 8E 62 AA 2F 45
 14 62 04 FD F0 F5 55 D2 0A 03 1A FC BC EE 41 EB
 E9 CA DB 39 8B BA F1 77 17 F7 4B 68 11 DE DD A3
 08 D7 3B 50 34 DE 2E 42 3C D7 7D 57 34 EF 0F AC
 EC 83 3F DC 58 EA 0A A6 C3 91 84 7E 7C 37 25 35
 A1 89 CB 20 C0 DE EC D3 37 23 DD DD D1 47 C1 C0
 B8 39 7E DC B4 5B 76 1A CD 51 00 99 4F DA E8 5C
 2F B8 B0 CC C9 DD AC 69 81 1D EB 8E 0B E4 58 55
 0F F5 F2 3B 74 3B 13 11 BB 7A 46 C0 33 88 BD 65
 57 E9 C6 33 F9 1C 67 58 0F 6B 01 84 17 0D 87 7F
 F2 EA 9A 9A EC 9F 27 60 A4 8B D8 75 9E 8C 6D 28
 81 83 8F FE EA 17 8B DF 89 CC CA 6F 52 50 2F 6C
 80 7D 5B 90 48 81 FD B7 CD 9C BB 6E 4F 28 73 4E
 DA FE 55 DC 60 F5 A8 C8 32 EC E8 9B C6 87 96 D7
 8B 29 7D A6 94 65 17 DD ED F5 3B 65 D4 3E CC A8
 F0 C9 6D 94 3B 48 86 D6 ED CE 60 C8 DB 2A 69 08
 FF D2 6E 1F 05 34 91 CE 04 08 A7 9A FF 1A B3 A3
 EF A5 28 84 91 36 A5 47 7B 25 39 E6 F8 35 B1 3F
 26 6A 19 DD 7C 37 FA 3C FA DA B9 A7 8C 97 BF CB
 67 63 E6 EC 2D 78 14 6F 92 3D 48 78 AD 49 A3 CB
 A9 63 07 51 FA B7 89 AA 49 73 06 2B 56 25 3B DA
 58 AC D3 8B 1E F8 DB 5D AA 5F C9 1E F0 63 22 37
 EF 8D A9 8D 78 6B CB 5C D1 28 23 CF FB 5C ED B7
 44 AA CE F7 C3 CC 94 A0 A2 CD D6 67 97 C3 B7 67
 17 BD BC DF CE BD 01 AC 8E 76 1E 4B E0 B3 DD 78
 39 47 6D 4C 79 2B 05 29 ED 0E 74 33 CC 6E 8D C9
 43 8E D2 C4 47 E4 08 41 7E 06 63 A4 F2 9B 77 CB
 84 4E 8A 14 6D C8 C1 AA 4F 4D 6B 67 80 83 14 E5
 D0 E1 00 B5 33 C0 8C 63 84 8C 20 DB 07 2D 15 D1
 C3 97 61 AC 72 CD 85 51 C7 AD 26 E9 BE 8D 1C C0
 CE A1 11 99 D2 94 8E 39 3D 94 0B 98 D3 2D 37 C4
 7A 8E 56 7A 03 4B B1 98 AA AF 04 D9 71 2A DF 55
 F7 65 6C D6 93 19 B5 C7 BE 9A 5C B9 0A D5 4E 2C
 E7 C4 AA 99 00 14 0C 00 EE F5 E3 DE 57 91 9C B2
 9C C5 E5 AB C2 3C 48 39 FF 7E 3F 66 49 5D EC B5
 F6 7B 72 90 2B 64 CA 1B 71 E3 8B EB A5 69 31 EF
 EF 05 46 FA C2 B8 F7 B1 83 90 41 C0 4E 7E 98 11
 89 9B 5D 0D 77 3B 85 EA 44 72 E2 35 A8 70 7F 23
 1D A0 89 60 45 88 16 BF 75 15 42 95 88 55 A9 83
 05 6F F3 41 CE 64 B4 E6 86 98 92 2F 53 8D A7 0A
 75 D2 63 C4 66 3F 7C 19 ED 8B 40 4C 05 D2 DE 53
 33 B4 6C F8 48 EE FD 02 6C D7 41 5C DE A7 C9 7A
 2E 34 60 0A A1 AD 5D 11 3A 07 41 0F B3 1E A5 DE
 C6 8A 5B 2E 27 69 44 E4 4E CA 0E A3 9A 8A 1A C8
 01 EF 58 F2 F9 EB F9 88 83 CB B1 D9 6F D8 39 66
 63 2B D9 AE 50 AF CB 65 1A 54 31 F2 BA 90 81 BC
 1F E8 4D 3B E5 98 65 55 8F B3 F4 D2 D3 5B 74 6B
 63 F4 24 D8 54 27 43 5D 11 3C AE 30 5D 93 BB 08
 49 27 8A BC A2 B4 2A 88 4D 03 E2 9A 9A 43 2F FF
 80 9F 39 AF 11 DF 2A BA C0 A6 1D D1 44 D2 24 48
 06 75 8B AD D3 F3 F2 BB 48 4B 9E 7B B8 15 09 2E
 8D C4 22 F6 D1 13 28 77 4F 6F 05 B3 9C E2 08 5D
 F5 2A F7 3F 8F 24 28 5E 12 94 FB FA F7 94 85 08
 22 DA 59 B9 BA F7 1B 1A 99 59 8F B9 D6 EA CD D3
 09 96 AB F9 17 02 CC 70 49 D4 EB 74 AE 79 26 E4
 6B 1A 3D F7 71 FD 67 7C 8E 9D 7A 2E 02 24 32 59
 F9 48 7F 18 F4 D2 DE F5 BB 70 5B 75 BD 17 51 3A
 61 4E 54 26 0D 75 D6 B0 75 FA FF 80 D9 09 8F A3
 1E 43 C4 A6 A4 B7 29 6B 42 9F B2 73 6A EB E4 C9
 09 31 06 B6 26 84 D0 52 13 8D B1 D0 A9 86 97 7D
 3A D9 E7 04 4E EE D4 EB 87 A6 8C 4C 86 EA 31 5D
 EB 14 00 93 18 F5 08 B0 B1 10 2B D6 0F C8 0A 42
 61 E1 36 CE 83 45 4E 09 8A 5E A9 F4 D2 9C 8B 1B
 40 73 D4 D1 CF EC 84 CA 1C EB 62 E3 86 EB D4 E7
 69 08 5A 86 BF EF 1E 6E 3D C1 0C 79 3A 8A F0 07
 76 40 24 C5 D6 A3 E8 98 ED 3E 73 32 4B C5 3D 45
 4F 6B 17 1C 00 5A 29 E9 08 DC A8 14 A1 8D BF E5
 64 CD 0F 22 00 CD F9 69 B9 28 17 19 89 DB AB 3E
 EF F6 C0 92 A8 A7 E2 54 A7 7E 00 AA C8 DE 3B 45
 E4 4D 1C CE 0A 6A F4 DC 23 5E 0B 1B 2C EA 56 12
 35 0F 64 22 07 7C BB D7 1F 4E AB 8B EC 90 23 23
 CD DF 64 01 FD 12 3C 3C A7 14 87 C6 2A 0C 01 87
 E3 9C 25 1B 07 2F 17 8F E5 55 3C 1A 5D 66 69 22
 29 33 48 4F CA D8 83 D2 11 A3 59 15 91 FE 7B A9
 5C 4C B1 F7 D1 56 3D BC 83 E4 B9 B9 F2 8E BD 50
 BB 3A A5 2B 0F 86 D3 2D 3B 81 A5 5B 4C B6 9F 7A
 B0 77 09 50 F0 5B 02 D9 B1 54 71 35 DD F1 05 F4
 EA 85 87 B7 9E 1D 53 40 B4 D1 F1 86 1C EF 55 FA
 CD C0 B9 3F 56 96 55 7A 1E EE BA 22 27 50 91 02
 94 6C FA 89 30 76 64 0B A5 41 73 BB 76 6E 66 57
 E3 40 DF 9F 5E 09 B6 36 F1 77 4D DB 38 86 74 8F
 A8 4E F9 51 DC 6E AA AC 17 88 D1 37 43 D5 DB A6
 8B 93 A6 0F D3 10 D4 DC 15 88 1F E8 C7 EC 46 BA
 1B 1E 9C 4F FB 98 B9 BB 02 34 87 3F 82 F8 2F 8F
 51 DC 0C BC 22 8E E7 F4 B9 4B 39 30 59 64 DA 43
 55 83 CE 41 03 82 9D BC 05 A6 07 12 2E 99 7F 56
 55 D2 AA D0 48 50 7F 67 59 AF 9E 11 86 59 9C 51
 53 94 B9 80 35 04 CA 1F 4D C1 4B 35 3E 45 80 32
 83 AD 63 24 2D D6 EA 78 B5 76 C0 A3 12 8F 6D F1
 98 61 3A E2 A8 48 A8 03 EC D1 F0 65 E2 C5 90 97
 C4 3B 04 E5 52 DB 12 0B 45 59 E5 41 BA A5 AD 43
 BE E0 67 2C 71 6C 2E 07 DB D0 77 DC 27 62 50 89
 35 5A 60 81 71 46 FA 4B F6 E9 C4 BB 59 F3 67 57
 06 E2 96 97 C8 E9 EA F2 0A EB 5C 2B 66 91 C3 93
 1F E2 9C 71 0A 6A 01 78 21 28 03 16 42 FA C9 79
 41 1B 15 32 87 E7 D9 EE A4 8F 68 5F A1 D0 A5 48
 EC F6 8D 70 09 DC 17 09 88 24 30 04 A4 6A CF B6
 12 A0 B9 AB 13 5C 19 23 C3 F6 6F 05 38 63 37 EF
 8A 36 0B 13 D2 7F 16 B7 B0 65 0F FC 59 8A 22 D1
 31 96 4E D7 AA A4 AF A8 F3 2B 9A 8D BF 1A 05 6A
 8B 63 CD DC B2 05 D1 AC 86 38 E8 49 90 D8 30 82
 A1 11 5D 71 CC F1 8D B7 5F 6C 5E CA 3C B4 35 49
 FF 46 A0 09 4B 2C 23 4B 19 E8 55 59 93 ED DB FB
 A1 11 B6 E7 45 1F 9B F2 93 16 01 85 C4 98 3A 4D
 24 E5 65 2A 8F C2 BE 41 3A 42 4B 38 41 96 97 13
 4F 79 5E 45 86 E7 D6 E8 D3 C6 90 04 C2 83 93 0D
 82 AA 49 6D 33 CE 23 8A 92 B8 C1 85 9B F0 62 78
 05 02 E2 EF 36 D2 80 17 57 B7 31 07 1A 86 32 EF
 26 FC A5 9E DA FB F0 39 F4 C9 25 8F 8D 59 4D 3A
 E5 96 DB 72 0A 6A F4 52 5C D8 5F 85 7D 48 9A FA
 02 84 32 65 F9 45 1D 27 B2 22 05 17 FA 2F 71 AC
 5E 20 BE E1 D0 67 0F DD FA 76 4D C8 35 BD AB AF
 F4 4D BB 64 94 7F 50 93 47 BA E6 27 DB 5D FA DF
 79 62 96 5E 6C 9F 4E C2 A6 54 B8 B9 49 F1 D8 D6
 02 31 02 E6 08 F1 B7 24 62 EF D5 F2 3B F3 DE 8B
 CA 2A 0F C6 55 9D D2 14 8A 6E 11 A0 A9 AA 2E 69
 8F 97 41 70 84 E9 40 8E 2E D0 92 BF 33 4C 08 59
 04 A4 20 A0 74 9C 8B 60 90 E6 38 E6 86 2B 1D E3
 1A E1 23 E4 35 C4 CF 86 BF 07 22 86 9A A4 12 DE
 C5 41 46 7A 2E 8E B7 BC 25 50 66 A0 DD 6F E1 71
 3A F6 B6 AF 2C 6A E0 C6 B2 BF 61 1E B6 66 CC 71
 76 7C F7 63 A1 5B 81 22 40 78 71 F1 D5 B5 C5 3D
 70 70 E7 07 C8 CA B0 CB 1E 02 CC FF 1F 62 F2 8A
 09 32 05 13 9C 87 F3 02 47 23 40 F0 28 CD 67 78
 11 9D 3A 8F 1E A8 FA 2B 04 FE 30 59 EB 6A 24 53
 BE 68 C9 7C 87 FB 9F A3 FC 14 59 EB FD FE 1B 36
 C2 72 3B 56 B4 92 00 F8 89 8A 6C EB 0A 33 14 3C
 4E 4F CD 7A A2 52 14 28 38 1A 09 52 12 DA C0 3A
 F4 56 F6 5A 49 63 3C 7D DF D7 12 7A 04 A6 F3 52
 7C A8 88 84 A0 26 A5 E2 5F 17 9E DE 2B C9 06 E2
 53 D8 84 B4 91 2C C2 B1 A7 8B 2F 9B 0D 09 C5 BD
 F2 AB F7 28 7A A3 0A CD 64 31 FB 2E 16 B0 D0 AE
 B5 94 71 67 AA 93 7F F8 24 28 CE 43 74 BB AF 0F
 B5 9A 1B E2 77 C0 72 AE 0F E1 F7 DA BB 89 B7 BB
 4C 8C FB C8 42 E4 A3 E7 0E 2C E5 BA 62 02 8D 7A
 4F BF CE 3C 93 3F A7 E8 13 04 D9 1A 2C 91 41 E3
 2A 0E C2 AD B3 32 7D BD B7 EA 57 D7 CB B3 65 CF
 A2 3F E9 5A 8F FD 4A 42 34 03 B5 91 F0 10 4B D7
 35 A0 4A 6D 8E 99 D8 B2 F2 81 45 37 9D B7 F3 E6
 E2 9C A4 04 B7 48 75 7E 36 96 29 9C 6B BB A9 85
 1F E0 D9 CE B7 C3 10 0D DB B6 A9 F9 4A 92 5D 6D
 50 4A BF 2B 58 74 E4 D0 C0 28 76 19 95 6B C0 9A
 39 CE DB E8 85 A6 BC 22 10 04 BD 69 10 76 56 92
 8D 63 03 C8 68 4C 63 9B 0E 4A C0 68 E1 61 79 AA
 56 6E 37 65 A5 CA 7D E1 65 AC 74 E9 EB C5 88 5C
 70 76 A0 F5 9A D6 E1 9A 1C 45 DB 66 36 59 4C 32
 B7 A6 F1 26 18 BF 6E 01 96 EA A8 B2 B9 57 2F 0B
 03 91 70 8A 60 B8 DC 27 4A 9C 8C 98 94 CF 77 2F
 73 57 8A 2A E8 F3 14 EC B2 BD 06 09 21 C8 0D F5
 80 34 B4 5F C4 33 35 41 D2 D1 ED E9 33 A6 ED 13
 35 72 B6 3B 06 1E BC 51 B7 A8 C0 CF 0C CC 5C 38
 21 F5 1E 12 A4 33 2A BB A0 DA FC AE 62 50 D0 9B
 2C 47 88 78 B3 A4 C9 6C DC AA 7E 7E 00 4A 43 07
 4D 41 55 94 A5 55 54 8E 22 B0 6F 08 A9 43 36 02
 B1 27 7B FC D7 A9 24 EA 90 01 22 D5 4C D5 39 66
 31 36 B1 9E 6A 43 FD 46 03 6D 21 02 EE 56 CD 5A
 7A 10 80 70 4D A2 B5 A1 39 74 A4 E7 44 A0 EB 81
 FB 26 9F 60 35 98 4D A4 C7 30 4B 6C B9 C0 89 7D
 A6 BD AF 17 55 B7 6B D9 C4 19 63 9D 4B 33 1E 5A
 AB 4C 51 88 1E D0 6C 76 94 6F 56 3D D1 2D 63 3B
 E8 56 C1 2B 54 02 F3 03 02 4E 71 E9 4A DA 8A A0
 C5 53 84 F8 FB 78 6F 8E 27 10 90 A9 36 2D 9B 8D
 6E 77 12 8E 03 E4 77 DD 63 96 57 08 78 67 0C C5
 6F 5A 26 79 FB 27 D3 4B D3 C2 EA 20 06 E8 7A 0B
 D4 A5 11 7E F0 A6 3A 5C 5F 6B 3A EE 6F C4 75 13
 BE FA EE 48 3B F2 28 B7 91 3D 58 71 3A 30 C3 CE
 50 15 16 56 EE F1 6F 2A 70 F5 F4 0F 38 E7 B1 EE
 4B 07 4E 70 BF 16 5E 2A 2F B1 7A 6D FC BD E6 EC
 64 48 E4 15 1A 10 5B 7B 2F 1A F5 68 3B F0 E0 5A
 84 12 9D 53 88 F0 8C 7F B2 F0 E1 03 CA 5E 6E FE
 6D EC AA E4 0B AB 8D 51 3E 2A A9 73 35 11 5F 5F
 0B BE 6D 05 07 7B 42 1B 71 25 B2 A8 28 A8 F0 32
 C7 AB 5A 8E A7 8F B4 3C 51 9C 45 F9 44 4C A4 69
 BF 0F 0B B4 87 60 26 AE 9F D5 3D DD 94 05 DA A6
 87 F3 6E 26 5B 3F E0 3E F4 9A 23 42 99 99 41 F7
 E1 74 76 31 18 AA 70 75 C1 6B E9 CF 22 BB 71 76
 EB 5D 88 04 CF B7 ED CE F2 B9 29 E8 0C BE D4 64
 D6 66 FA 9F D6 F0 0A 61 10 39 F3 E8 64 C4 84 3E
 73 05 26 67 9F 3E E3 46 94 90 57 58 A7 DA 56 28
 6E F4 24 6D 13 E7 3C 26 4A 28 62 86 18 42 B5 2A
 AA 9E CD 38 78 AB 9A 33 70 BE 2B 72 02 EF 46 BA
 9C 16 C2 E0 5E 8B 6A D9 2D 11 91 36 22 95 B9 2B
 50 93 D3 B3 88 B6 FF 41 90 AD DA D6 5A 16 C0 F5
 7E AB 64 1F 90 87 9C 18 37 82 E6 6F 57 5C CB 44
 EE F9 21 5E 3A D0 7C 71 31 FA E9 8F 8D 19 52 6D
 C1 88 3F 94 B2 AC 9C 38 28 CC 52 4D DB 06 1E 76
 E6 ED 3A 2E F8 43 0E C5 FB 68 BE 78 FB EA C2 2C
 3A C8 A3 D0 5E D3 EF 94 1D D5 A9 A8 C4 4C 1C BE
 CD 50 1F 4B 94 C2 0C 1D 14 F3 B4 1F B7 47 20 09
 23 F6 A9 83 FE 5C EB B3 0F 10 A5 69 27 1F 2B 2F
 E5 FE 47 0D 3C 0C B8 B9 B0 94 B4 B8 BE 3A 01 38
 B4 EE 64 AA F6 1E 8A 1E 36 69 29 B6 0F 02 C2 74
 0E 3C 98 15 5A 74 C8 0E 05 A3 CD 7E 12 0B 34 FA
 0D 95 67 8A 0E 1D 0A 9C 99 A0 29 80 AC 7F AC 78
 DA CD EC 34 B7 75 B8 EC B4 33 AB 31 EA 12 D5 01
 A5 5E 0B 79 7D 6C 63 F6 C0 85 0C 8B 7A 53 FB 0C
 CD 47 E3 5D 51 2E B7 91 89 8F 15 D4 8A 88 0A DA
 5C 14 D8 8A 26 92 2C E8 08 C3 3B F0 69 27 29 40
 1E F1 2E D7 09 D2 B7 98 46 26 A2 8F 9D DB 36 9F
 FB 6B 5D 03 B7 24 15 AC D5 50 BC EB 54 3E BF 00
 9F EF AD 0A BE 92 53 3E D3 19 80 A7 68 B7 68 A2
 D9 F8 B0 26 6D 43 CC 2E A3 C9 03 18 3B 03 57 FB
 76 DF C4 40 CF 92 C0 57 C4 A3 AB B7 E3 69 40 36
 EE 37 D4 9A C2 9B 13 D9 5C 3D 54 8E 8A DE 6A 17
 4F 8F 12 52 CC FC F8 AF 7F DC F4 C4 F7 31 A9 D7
 23 D9 51 29 DD 7F 90 68 CF 3C 6E 59 80 26 43 87
 AF 7A 83 0C C3 0B D6 CF 23 64 00 22 28 05 F1 F9
 46 AE 82 86 0B BC E9 B4 FA 4B B9 2E 90 3F 80 A5
 E3 95 21 88 FF 12 1D E2 F7 87 10 56 19 DD D7 1B
 4A 52 D7 BE 7B 06 89 99 27 61 19 59 87 04 6F 45
 9F CD DE 9C 23 A4 97 39 7F 47 F2 24 5D AE 67 1A
 7E FF 7E 45 71 B9 CE D0 E6 D9 B1 0F CA A0 CC 01
 0F AD 0C C3 30 06 6E F4 EA 35 3A EF 7E 2B 77 FF
 F7 C5 D5 D3 96 D8 0D 9C 48 C0 A0 D8 A6 4C 6E 8F
 9A C2 45 5F 22 F9 8A BE 2B A5 D5 4A 2C 17 4A 81
 DC E1 E2 15 EF B2 7C 4A 26 81 36 F7 1E B2 82 BE
 90 09 FD A0 71 32 DB 3E F1 67 2C C9 A3 AC 8C 23
 C4 28 85 21 01 20 1E 25 ED D0 B2 B1 85 35 FB 03
 39 B7 D5 29 B5 1D 23 23 A2 BC D5 EE 9C 17 A2 19
 EE 7F CA 18 3F BD A7 74 60 05 A6 94 B6 7B 44 C4
 A2 88 04 0E 29 FB 96 15 8F F2 E1 BB DD D4 6A EF
 BA 2D 0C 50 46 92 2D 1D 8C AB 8E E1 4D 50 3F 21
 36 FD 51 B2 A2 8D AD 8D 62 AC B1 34 AC AC D9 8A
 ED 3D 47 8E 9E 43 6F D9 07 14 F0 AE 83 EE 3F BB
 88 F8 AE E9 5E 85 0F E0 3E B0 EB C9 DF CB 45 14
 71 7D FC 8D 9E 00 83 21 DD D5 72 B1 8C 48 D9 0F
 61 68 B6 7D 3D CA 30 4F F5 AD 06 92 D2 D4 DF 63
 3D 7F BB 8B 67 8D 9E 32 CB D4 09 0F B0 46 20 E8
 07 AF A3 98 B5 2B 02 88 2F D5 BC 02 F6 C9 A5 F9
 E5 A9 78 CA E4 4B 1B EB AA D0 CA F8 61 EA E2 0E
 CC 5E 35 28 57 0F 2E D7 25 12 CD B1 83 2F 36 47
 EA E2 28 FE CE B2 11 A4 88 03 66 67 22 7E 2B 52
 C2 0B 24 C6 4C 19 D6 A6 E9 C0 E5 A6 CF 8E 19 1D
 8E D5 04 4B 39 4F 58 36 C9 3C C6 45 59 8B B3 1B
 F4 E7 0D CE 4B C7 A0 A4 E6 C1 8E FB B3 41 D9 8F
 98 3E 0E 4B 7D 89 EE 75 55 6F B0 46 2E BC 4A 1E
 8F 8E 8C F6 8A 98 66 75 74 30 CD 8F E0 01 04 11
 C3 C3 B5 C9 C2 20 F3 24 CB 9D AE 9C 4A 19 A3 ED
 CD BB BA 15 52 E5 C4 35 4D 1A 22 3B 3D 9B 2D 3C
 DE 85 46 4F 49 7B E8 B9 1D 24 B1 CF D7 C6 FE 65
 7C 7F 2C 54 B6 1A 23 C1 CB 38 16 09 7D 66 D4 9A
 4A 5F DA 4C 03 92 B5 51 73 80 21 7B FB 86 12 88
 C8 23 64 A3 78 46 1E 3A EF 3F 1A EE D0 91 D6 53
 2D ED 4F 49 92 25 36 E1 AE 37 58 44 79 5A 68 A9
 92 5C BF CE C2 98 AC 9B 5F 14 EC 6C D1 0E 2D 11
 23 44 B5 F5 77 3D 97 46 42 C9 1B A6 4A D1 4C 26
 41 82 7D 52 3B 3B 66 B0 3C 0A 33 01 4C 9F 71 79
 FC 1B 64 AB B1 DE AE BD 25 B2 30 E3 7B 12 F5 D5
 33 1D 05 5E AC AE FD 14 AD FB 7C 3A FC 8D 4F 81
 4B D6 E4 5F 01 7E 27 30 D8 F1 F8 6D 2C C0 CE 11
 AE 21 21 22 00 A3 55 21 B2 EF 82 21 CC 3F 34 5A
 A2 BA F2 0B 30 10 04 CB 24 C0 E7 F4 32 4B F1 AF
 B7 B9 EC E6 A5 5D F5 89 DD 93 80 87 66 95 BC D8
 8F 58 32 2F EA 8C 76 0C BF C8 E2 DA DA EE E6 AD
 4C B3 3A 40 0A D8 C7 E4 B0 AB 2E 7D E6 47 90 AF
 44 B3 08 19 A0 62 B0 4B CC 53 7D E5 F0 3A FF 9A
 AC 6C A4 68 41 C4 C0 94 AF 74 93 F3 90 67 0F 9C
 C8 F2 9E 41 D6 F6 7C 07 2B 54 7A 5A F0 6B 8E 37
 20 D7 44 DA 75 15 E3 1B 44 F2 75 82 28 85 4A 5A
 F1 1D 87 7C 3F 87 68 B6 3C FA 65 70 A4 F0 C2 48
 90 2D 6D D2 1F CB E2 CA 26 C9 7E 8A B8 30 C3 71
 20 12 77 68 DC 67 33 CC 90 E2 E9 70 E9 E4 B9 21
 14 88 E1 32 2F 7B 5C 36 A0 49 5B 54 B8 5F 56 3C
 12 3F 65 88 44 68 BB 12 80 8A C5 BA 3C FC FC 7B
 B5 33 42 8F 3F F0 06 5A 48 9C 29 58 57 05 A5 E5
 31 90 E8 A3 36 D3 58 BC 42 78 21 A7 F6 13 3D 58
 2F 29 6E C5 8A 45 AA C5 EF 03 CC 5A 6B A7 36 E2
 7D EC 10 8D 81 EB AB FA E2 BC E4 6D 6B BE 18 A3
 D2 6C 19 F6 78 F1 8A 38 B8 EE 5B 1D A2 EA 5E A3
 33 90 85 91 7D 1F 05 51 29 84 A1 35 6C 15 BB EF
 73 8E E9 B0 8F 66 AB 84 E7 C7 8C 15 BE 2B A0 D1
 9D 2E 4C 09 FC CE 2A 46 77 08 8E 75 FB 2D FA 8C
 95 96 5D 46 10 FA 00 9F 94 0F 5E D0 B7 0C 1E DF
 C6 5B 76 80 10 DA 70 5A 82 09 EA A7 C2 E6 61 52
 44 C7 97 43 2E 1B 0D 46 CF 7E 24 52 F8 6F A7 5A
 1F 47 36 77 B9 D7 15 AD E1 56 66 03 DE 56 53 9E
 9F 2B F2 A7 3D A0 40 CA 9F 01 A9 FB 3F 78 2C 6A
 E2 CC 50 FC BD 96 7F 58 6A 85 8B 36 5E CF AA 1B
 7F E1 29 5D AF DE 39 28 72 C4 93 B9 07 ED 36 1C
 C9 9F D5 3D 4A 4A FB EC 99 56 38 32 BD 3D 2D FA
 B5 F6 8A 21 A7 09 79 6B 1D 6D 2A A4 5B E2 32 38
 3C 5F 8F E0 5B FB 0C 18 E4 B6 A1 01 C7 1B 21 20
 50 9E B1 C7 EB 4C C3 30 D6 13 82 F3 00 59 14 9A
 74 32 78 61 78 70 CA 73 2B 97 72 0C D7 2F D1 CB
 17 5F B4 03 2F 10 F5 7A CA CB E7 AE 0E BB 90 78
 1B B5 F2 06 70 37 56 5C 6E 7D 73 B4 86 EF 87 68
 45 9F 33 44 4A C5 2D 89 D3 F5 C4 1B 45 8C 3D DB
 36 CE 60 67 E9 8B 4C E7 11 98 4E EB B4 F2 EB 25
 68 2F 8E 38 B6 DB 37 0B 2B 99 B5 56 9A EE 60 EC
 5C B2 FE 74 EE 89 74 75 DE 2D FD FE 09 95 B0 48
 8E 9F 4C 90 DD 1A 3D 13 D8 51 18 7F 7D CC 28 39
 AA BC CB C1 FF 7A 3E CC 13 8B B7 EA 04 ED 92 E1
 E2 9F 4F 6F 27 D7 2B 1A 96 4A 4C ED 6E 96 D7 9D
 03 0F 63 73 70 33 FA 59 D9 AD 85 CB 1C A4 8D 01
 04 B6 86 F1 78 48 78 7C 3B A0 CF 40 D4 CE 72 34
 C7 35 85 B1 CE B8 3D D4 2D A3 BF B1 5B CB 46 05
 01 47 4D 1E 7C F3 38 50 6D 0A E9 77 8C 78 6F 85
 DB E9 D8 AB 7F 81 66 50 5D 71 82 2D CF 81 F0 D6
 32 9E 63 1D D9 DD 53 E8 95 EE DE DC 7F D1 D6 DB
 41 E4 CD 1B E0 18 79 5C 53 BA FB 0D 72 58 35 EC
 D2 AB 28 32 6F 54 E5 A3 37 79 6F BE 93 3B 53 DD
 56 A5 F9 E3 F7 FD 68 E0 47 75 E7 9F 38 6F 91 8B
 ED 17 CF 22 0A 5D D6 74 36 32 E2 3F 39 7F 36 30
 98 FE A5 ED 36 C1 60 B4 77 AE C3 3C 67 7C 92 B8
 A1 23 42 D3 26 4C 50 6D E5 4C 6F CA BE 49 EE 3A
 39 35 B5 8A 8A F2 08 EE D9 0E DF 37 F0 39 57 34
 DF 47 8B 52 89 3B 48 A8 95 6D 6E 35 39 DF 27 E0
 E5 B5 83 B3 CC 4E 80 8A D5 BE 4B 42 9B EA 7A 7C
 CD 2F 55 D8 18 F8 14 55 17 8A A1 15 F1 27 57 D1
 17 51 4D 43 93 8C 0F B8 55 7A 8D 5E 93 78 4A 56
 3A 4D 08 18 0B 97 95 73 B3 13 CD E2 01 34 05 D3
 92 ED AD A3 9D 0C C6 AD 0E 64 FD 75 66 6B 70 DC
 9B 79 00 3E 54 AE 4A 97 B4 AE 8B 8E 78 3B 50 28
 EF A5 43 96 EE 0A EB 3E 02 3D 16 F2 07 25 2A EA
 89 C2 E1 32 80 E7 BE 15 1E 4C 5C 54 0B 78 43 CB
 BB DB 0B 41 67 46 93 85 F7 DC F6 59 B7 BE 99 FE
 E7 88 03 BC CA 8A 68 D5 37 3A A5 70 E1 55 92 72
 03 88 62 E2 99 B3 6E 8C 14 BC ED 79 07 3E C1 4E
 67 87 C5 66 6D FC 34 39 91 A2 A0 59 1D 2F AE 8B
 2D 54 CD 4C C8 62 EC D1 5B AD A9 8B 4D 74 6F AC
 8C D6 C1 67 89 FF 86 C0 CA C9 20 A5 39 AF F6 B2
 49 9A 6F 50 8F 44 76 70 90 D8 04 E9 DD 65 E4 8A
 9D 82 16 F3 41 CB 40 6A A4 19 DB 21 50 E7 68 3C
 B3 BF 69 A2 9B 1A 95 EE FD 25 98 59 8A D0 30 72
 28 6A D4 D2 D9 40 90 73 57 7B 6E EC 95 F4 8F DC
 81 94 F6 42 B3 D1 7C 54 99 D2 EC 7B 8D FC 05 3D
 9B B0 C5 81 0E D4 9A 16 4A EF 18 B5 81 6B CC C9
 04 8E 3C A3 1E 94 03 7F F9 20 B4 31 94 FE AC 6F
 B2 83 EC EF 3E C8 9A 11 84 AF 38 38 57 AC A0 76
 77 4A 73 8F E6 8C B9 73 FD 4F 6A 95 0F 2F DB A9
 98 64 41 25 BF 7F A5 0C 0F B3 DA 81 4A 33 69 97
 C6 4E FC 04 16 ED 33 2A 1C 77 22 7E 26 8C 9E 8D
 A6 67 95 3F 77 26 EC 39 40 52 09 B4 67 E3 9F CC
 26 BD 56 8D 57 7B 9C B1 21 53 78 16 34 2A 4B A9
 A1 7E 97 F2 9D BC E0 78 00 8B C7 5D 24 28 2F FE
 43 31 20 BD 33 A8 FE 46 95 DB 07 96 C0 CD DA 3C
 5E 8D BA 46 6B FB 8F 08 BC 4D 67 E3 45 5F 0B F4
 C8 D1 53 5E EF 37 21 D9 55 89 38 39 22 A9 FD 9F
 89 A8 A9 16 A6 9A 09 5E 5D 92 1F 97 08 67 FC EF
 67 D0 21 AB 50 5C 7A 57 17 82 A2 1F 89 F5 68 29
 B0 8C 79 89 8B 1D 7A 38 20 1F D1 6A AE 56 95 9F
 F6 3F A6 59 E5 69 BE A5 8A 9C 5C 7F C4 AB 0A E0
 B2 1B 9C D0 D9 E2 C5 BE 6E BE B1 1D 5E C6 00 F9
 42 19 0F 44 10 F5 DD CA CF 82 A8 3A 66 29 33 EC
 30 04 8F 5A CA EE 81 10 01 AB BD 1F E1 49 60 72
 61 3E 46 5B FB FF 55 6B EB 87 0D 12 1D 64 99 3D
 90 AE 77 F7 7B 20 8E E0 96 0A B2 12 2C D6 0E 82
 C2 2E FC 0C B6 2F 9F 46 64 79 BC 9D 48 01 A5 B4
 C4 91 D8 B4 5A EE 7B 28 C7 EC 13 61 3B 8A DA 05
 A0 54 11 FD A5 03 59 B5 86 27 13 89 EF BE 37 C7
 EF B6 EB 5B A6 5B 3C CB B7 08 FE 46 4A 5C B2 DE
 16 8D 58 62 CF E3 4C EF 6C 98 D9 13 5F B5 00 70
 39 90 91 9F 97 44 87 02 1B 0C 1F 92 87 A8 B7 88
 00 50 DC 06 47 6F B9 03 12 DF 54 CA D0 55 F3 4A
 87 8D BF 4D 34 65 40 71 2B 2A B5 73 59 49 BE 77
 D8 48 DD EF 39 2B B8 91 D9 8D F0 35 C9 FA 80 C2
 0C 11 08 ED 4F 2D 2A 34 1F 8A 35 28 48 5A A0 D1
 6A D3 1F F8 89 59 51 93 4C 2D F8 1A FA A2 DC 98
 EC D4 64 C3 0D F0 EA 21 1B F2 90 3B 51 59 0A 6F
 6D F5 92 60 88 F4 CB 14 3F 57 01 76 AF F7 E3 28
 8F 94 30 70 13 56 24 7D 5D 4F 54 F7 1F B6 72 70
 A1 C5 8B 2A 3A 09 9D 92 E4 AF 2E CB F1 92 1E 4E
 7C 0E 12 07 8E 8A AC B3 0A 13 54 EC 5E 18 9F EB
 F8 DA 11 B8 2F FA 7D CF BE CE 62 C4 3C FF 27 67
 D5 26 20 9E 7A 12 73 F2 B0 54 CD FD 5D 4E E2 07
 38 7E 3B 01 52 6E 37 C7 81 84 AF 16 72 6E 9B A6
 58 D9 A6 EF DF D7 F9 B2 88 A2 5C 29 87 4E DC 1C
 0C F1 4F 85 6F 5F F0 1B 39 1E F1 B2 91 95 25 99
 FD CB E7 C5 DE D9 E4 C1 12 7F 3F 44 E5 F8 2B 01
 B7 F9 42 3B E8 77 0F AD 3F F6 0D D3 9E 19 D5 77
 BA 53 68 25 B2 71 9E 70 29 E7 63 F7 1D 5E 69 F4
 AA 94 04 75 E9 AF CE 36 83 62 01 49 22 13 96 48
 81 D6 7A 55 8D A7 0F A5 65 C5 2E 6C 5C B5 D3 2E
 00 8F E2 BD A0 7D 73 68 BD D3 1F E3 2B 34 06 32
 F7 ED 1F 83 39 F0 D2 71 68 FF F7 9F C1 31 4F 2B
 E0 A5 BE C9 09 F1 0F 7E 3F 3E D3 F5 8E 73 82 43
 8B 59 D7 47 28 46 19 82 08 76 D7 E4 00 32 48 C6
 3A B8 D0 5D 49 23 9E 03 24 EC CC 36 7D 0C FE 32
 E4 9D FF B2 9C 5C E5 8E 10 C9 96 30 A4 1D D5 20
 EC 12 7A 02 AF BD AC 2E D7 69 C4 E3 97 5F 9A 45
 36 6A 4C 0A 92 47 33 32 EB D1 67 35 ED A7 B0 14
 37 B7 78 71 17 F8 90 7D 2A DF 07 B7 6C D5 63 C6
 6E 54 2D 4A EB 86 CD B5 F1 D6 B1 CC 73 F1 89 73
 EA 85 0A 6A 58 1F 49 8E 01 B9 33 F8 AD 1C 7B 7B
 32 48 ED BE 21 90 33 44 1B 07 05 82 19 D9 2F 9D
 04 95 A8 A8 36 47 31 5B AD 11 C5 3B 07 C6 8F 0A
 86 11 57 27 5F 81 04 B9 41 00 3C 41 6E 79 98 E4
 73 2E 0F F7 38 7B D1 BA 06 0E 81 7E 01 60 44 C3
 12 28 27 9F 1B CA 99 4F AE 48 A6 C9 2F 32 4C 95
 41 48 73 3F 8D 10 FF C4 A5 C5 F5 5F DC 01 49 82
 F9 00 5A B0 B9 C4 2A 59 73 97 C4 92 59 73 BE B6
 9C 05 9A CB 46 37 AD 4F 6C F8 4A 40 25 97 98 63
 17 AE A9 5B F8 CC DB E4 B3 8B AD 4B 0E DB 3D 10
 47 1B 72 1B D4 51 D3 9E B0 DA FF 4E 6A 4E A5 E5
 79 7A 8D 79 F9 FF 2F 6B BB 43 85 EA 84 33 00 B1
 94 62 AC 8A 7C FD 27 09 62 38 91 5D CA 11 41 C9
 70 21 21 E7 4B 38 88 97 CB 16 87 6F D9 92 6A B2
 B3 FF AF 1D C6 62 07 9F 28 95 32 04 2C 53 CE C9
 06 DE 40 3D AD 74 3C A2 EC DE 6D 45 71 3C ED BD
 54 A5 EC 3C 25 B6 15 1A 34 5B 8A 50 E6 C3 D8 4C
 DF 39 9F F5 93 C6 35 2C F3 D1 3F A2 58 EC 58 7F
 CC 59 0B 75 D8 C4 5E AF 56 02 71 C4 92 CF A7 A0
 98 A1 56 D0 80 8C AA AA 5C AE 5F 7E 2F 26 D3 62
 F1 FE 20 15 44 1B 68 85 2C F5 66 01 53 E2 44 80
 25 EF 17 F8 B3 5A C6 86 1D C0 B3 6C AC 37 A2 18
 CC A8 A2 7B 63 88 D9 C9 57 6B 99 AC A6 09 44 68
 05 B6 54 09 32 3F D4 DE 3A FC 67 F9 F4 82 55 69
 69 8F 78 CE B5 BE 75 20 C4 90 E0 D3 A6 4F E5 21
 52 B3 76 0B F6 49 F4 D0 E7 36 26 7A 6F 44 5D FC
 50 7C 53 47 62 8D 72 E5 9A 8A 48 11 AA 06 87 71
 A6 62 F5 FE 33 C5 E6 46 10 21 3A E3 50 0B 02 B4
 BE 54 F6 D2 26 FC 1C 1A 96 E4 68 FC 4F 90 6B C9
 0C A2 27 E1 E0 6F 56 D2 24 F6 5C 6D C5 9E 30 20
 27 9A A3 B5 F4 C7 8A 8D 6C 49 41 61 88 51 FA 2C
 95 C4 01 08 B1 55 73 C7 F8 F6 D3 D4 BB E2 26 C6
 77 4C 18 3C 02 6C B2 60 CA B5 2D 43 5D 9F F8 1C
 7F 2E 54 E6 96 06 68 3E F2 FA 97 A7 81 D5 A4 43
 27 C0 A1 69 E3 35 A1 D3 5E 3F 16 9D A5 7C 4F A0
 71 AB FD D2 90 FC D1 B8 31 2A C7 CC 7F F8 77 43
 72 A3 8E 91 F6 9F 8F 18 57 60 BA 9D 38 2A 8B E7
 30 44 E9 28 E1 A2 6C 95 F8 7A E5 5C D8 EB 14 63
 AB 9E 51 7D AA 85 C3 3C 10 23 E0 C7 4F 60 D5 7F
 AE 07 A6 53 3D 7D ED 3E D5 3C A9 F9 52 E8 A8 96
 02 94 1A 3E 27 87 E8 59 78 6F DE 11 F6 18 AD FB
 A5 8F 45 47 AA FE 9B DB 18 3C 90 A7 44 3C C5 8C
 61 6F 9F E7 1F 60 B4 16 98 32 43 62 20 93 41 6F
 A6 91 83 5A 19 F4 5D 83 97 BA 60 05 AA 55 33 4A
 78 72 A3 93 D6 15 09 1D 7C E7 44 99 31 D1 1B 03
 BD 2A 6D BD 02 74 31 2F 61 97 F8 F6 CB 30 D7 48
 C1 31 2B 1B AA BA 93 EF 9D 47 15 BF 08 E3 59 20
 6A 8A D8 83 FC 3F 07 DB BA 69 1A 51 A3 9D 83 B3
 A6 DB A0 4B A7 EB 1E 66 3F 81 CE 0A 56 F1 B7 2F
 12 B1 D6 A8 BA 95 3C D8 20 FF 59 F7 99 09 B2 9F
 50 6F 7E 5C 72 89 CD 8C 45 B5 47 FC DB 82 D2 14
 E3 98 35 7F 26 D8 94 04 4B F1 BC 7B 55 59 3B C1
 9D 36 07 B4 09 AC 11 BF AE CA B0 C6 1F 28 CB EA
 FD 23 E5 DC D3 E5 80 D8 0D BB D5 8F 8F E5 46 FF
 B8 80 7F D3 53 F9 81 6B E3 B9 40 AA F4 CF 12 89
 30 C4 2C 38 CC 3E CC 8F A8 1A 84 33 6A 5E E5 A1
 63 C3 32 CE 0A 66 15 46 26 13 78 40 DA E2 76 C7
 35 5E B6 08 BF 84 A5 05 B8 21 73 E9 57 2A 9A 44
 5B 78 D3 CD F4 5D BC 48 E7 59 CC 2A D4 D3 29 D2
 C8 3B 7D 54 8F 54 4F C5 05 F8 D0 94 94 56 B4 8C
 BE BA CC DD D1 01 53 C8 49 62 9B 65 39 A0 2E D6
 5D CE FF 46 22 8B 5C A7 8B 58 45 A8 75 68 8E 1F
 72 9A DB D2 4D 3B 52 E7 0E 58 A2 20 E8 88 F2 79
 5E F0 74 BA 56 D0 E8 87 A5 F0 20 1B 66 2E 6C 48
 23 11 A7 E2 21 D8 40 A1 42 49 35 69 49 4A F9 38
 C6 F3 5F BF 67 25 58 34 49 D8 40 EF 84 88 77 D6
 7D 65 8A 20 7D F8 86 91 8E D0 54 0B DB 86 63 90
 CE 64 70 03 25 96 02 34 46 94 65 31 92 C9 88 A9
 20 48 64 2F 4A F5 F5 A0 85 21 F6 A9 39 7C F0 C1
 3A D3 F4 29 A7 95 CA BC 85 E2 05 26 98 E8 E7 8B
 18 22 F9 B3 C3 46 B9 29 2C 95 31 3A 8D B7 1C 1B
 83 26 49 F4 8C ED 65 1F F0 E8 33 F5 2C EA C2 1B
 14 29 CB 12 E3 BF 9A 90 7A 78 95 04 69 39 3B E1
 8C 06 2A EF E5 72 A8 B7 EC BB 51 6F B5 80 79 94
 BC 11 8A DC C0 CA 92 08 8B 04 CF 74 A0 06 66 9F
 40 85 5B A3 FA 30 52 93 76 15 FC 66 8A B0 4A 8C
 60 40 F6 F8 D3 24 E6 F8 08 24 69 24 42 5A D1 4C
 F3 9E C6 23 9F 51 B0 14 26 6D 83 3C DF D0 61 B5
 33 73 92 BE A8 84 CA 7F A9 F5 58 3D FD A4 B7 23
 2B 3D 84 68 F8 FA 59 14 88 42 0C A5 92 E2 BC 8E
 47 17 C6 BB 0F 34 D1 82 1D A1 5A 79 E0 F4 1D 3D
 F2 CA 10 97 1A 5C 96 11 94 1D 61 F5 85 CD 3F C5
 D4 9E 1F 5E FD E6 D1 4D 49 5C 88 29 C6 DC 81 02
 75 C7 3B 24 44 97 25 BE 6C EE A4 7C AD EB F8 07
 A9 C1 97 FB FA E7 A7 8E 80 7C A0 00 15 E5 3A A6
 3F F9 84 B0 03 3B 2C 28 C9 57 A2 07 CD A4 05 A8
 81 96 AE E4 11 69 62 A3 31 D8 00 8E 6A 77 19 35
 D6 FB E8 24 B8 F3 0B F6 CC 6D 70 5D FC DD FF DB
 C3 AF E9 45 E1 6F 95 52 F2 AE E7 15 EC 89 F7 FF
 68 E9 DA 1B 38 11 32 CB 31 99 5E 78 88 52 32 FF
 FC 5B DD B2 A0 E7 3B BA 1C E7 AF 31 BB DD 3E 19
 64 59 90 87 66 FC 4A 47 41 34 9F 32 6C 25 7B 6F
 72 D3 77 88 56 35 33 A7 3F EB 65 9B 53 F3 1E 86
 73 78 FE 03 C3 1A 97 55 8F DF 36 62 BE 09 4C 60
 F5 39 3E E1 02 5E 9F 16 D3 8D A1 2E 82 BE 61 40
 41 82 B5 1E 7D 50 6B 0E 93 04 BF D7 A3 66 C5 61
 14 A0 AB 7F 2D 97 A3 19 8B D9 58 DD 72 5B DD 76
 55 B0 11 E9 1C 95 6A 40 8A 4A C9 CB F2 FB 57 93
 3C E1 4B 76 B4 8D 2C B8 A3 97 FB 80 BA E9 D4 05
 E3 9F 74 E6 97 17 40 67 28 39 0D 4A 99 95 36 96
 25 69 3F AB 70 C8 D5 6D 6B B1 BF 6C 6D 12 2D AF
 7D DA 25 61 6D FD 01 E1 B8 76 0B 7A DC C4 54 45
 89 D7 E5 DD CC 03 97 D9 54 60 F3 BF 14 0C 16 42
 FA E8 AE BF 36 24 34 96 81 D7 45 F8 89 05 2B D1
 4E FD B2 69 22 AA 2A 7D B1 8D 29 31 3D 9E 80 EA
 ED A2 1C 27 0A 0B EF 39 05 26 A2 AF C2 30 C0 79
 3C C5 A1 43 AF 09 4F 2D C1 C0 DA B2 8B 2C 67 2E
 BC 29 AD DE 8E 2E 6D A7 8E C4 A5 D3 AD F9 FF ED
 12 49 5C 45 4A 6D E6 81 34 D4 77 E9 51 D7 0C 42
 90 ED 1F B0 E4 E9 E7 8C F4 25 D2 8F E1 D9 82 BA
 45 19 08 05 12 12 87 7A A4 9F FF 21 48 D1 5E 18
 15 84 FB 81 3D 6C 1F 59 2D 7E 13 7A 73 4A 5C F8
 F6 FF 34 21 71 AD F5 16 18 13 FB 25 DA 5D 3B E0
 DD D6 F7 25 79 A7 7F 5B 3D 72 95 B2 A1 C6 39 A5
 12 D2 45 CC 84 9F 24 ED 4E 57 B9 24 86 2E C7 F9
 CD 63 52 C5 E9 66 9E FF B3 70 CD E4 72 D4 0B 09
 FD F9 86 9C 30 A6 42 04 1B 10 06 B5 38 48 BA CD
 91 DC BE C2 5B D1 7A D6 CA 48 F8 54 B4 FF B4 F3
 38 66 53 92 E0 C1 DB 96 CA 86 78 30 5D C5 5C 91
 18 C4 48 21 4C 70 E7 18 B6 E8 9E AC F5 D8 DF 9C
 1A E5 16 F6 BA 07 E9 E8 84 55 57 5F 05 FE 7E C0
 AE 74 56 78 C9 A2 4E DC 2A FC D0 D9 36 BC 62 05
 08 74 57 D9 AB 4C 24 E6 29 31 FB E2 0E FC 65 7B
 73 5C 2A 21 64 9A 80 38 29 4E 36 3A BE DF 9D 9B
 5B 47 31 4E 44 8C C9 D9 E1 8C 69 98 06 98 9A 4C
 EA 43 0D 32 C9 0D 77 31 D0 4B D2 8A E4 A8 3A 79
 ED 24 8B B4 8D B4 41 35 67 95 6E C6 E6 A7 B9 CF
 5D FE 2B 63 29 46 32 87 8A 8F ED 75 20 63 1D B0
 9B AB 43 4C 38 4C 58 7D B8 56 06 8C 0D 06 34 29
 A6 89 D0 40 72 C5 FA 8A 44 43 B8 D9 8A 8C F7 BD
 17 CA 60 82 BF D9 EC 13 02 8B 7F 08 2E B6 D9 CA
 D7 8D E3 A7 E5 DD 34 57 1B 8C C0 99 C0 C5 BD ED
 95 5E BA 60 BA 87 F4 D0 23 37 10 C6 A1 60 58 6F
 9C 17 B6 EC 62 1C F5 4F C1 A8 80 85 41 73 93 85
 90 70 B7 DC 66 E9 C4 B7 29 92 0D 67 80 9B D5 8D
 CD A0 DF 80 C5 32 B5 D9 EB 05 D8 26 A9 46 DE F7
 C5 5C 57 8F F2 37 79 48 35 09 94 2A DF 6C 84 75
 D4 1C 03 9D CF 7F 8C BF BB 83 F7 9E 80 6A 28 0F
 CC CD 7A 6D 26 22 E2 88 12 D1 5B 40 A1 07 2A 63
 1F AA 72 DE 1A 8C 60 11 68 B6 F3 1B 83 81 26 C1
 02 4F 47 8F 7A 6B 01 9B B4 AF 65 69 32 18 A9 89
 02 FD 8E 1F 53 9B 48 68 10 79 92 5C 79 A4 E9 DE
 44 82 9A 2C 5E 36 E1 19 65 7C AD 8E B8 FC 69 86
 76 FD EF 3C 10 75 23 03 CA C3 7E EE 5D F6 66 5D
 09 FA AE 96 11 DD 42 76 D5 F0 F8 DD 23 2C E6 C2
 B2 3B 19 EB C9 48 49 3F 7A 05 4A 6D 7B 61 5B 90
 4C DE 75 FA EB 3E 31 E6 C5 FF 8B DC 3E 4E 92 EB
 B6 9E 8E 7F 1B E1 28 CA 35 46 8D A0 1A 33 27 8E
 7E 3E 74 7C 9F 5C 95 5B F9 89 7E 4E CF 7C 76 8F
 0E 45 3F 2D A0 D6 D6 80 E7 A3 DA 17 4D 0F F8 E9
 7C 3A 9F 5E 5B E6 41 40 A5 92 07 A5 10 1F 47 65
 D3 D1 DF 77 4E 04 A5 00 88 4A 4F 9E 6D 1E FE 08
 09 17 18 5C 94 2F 78 28 20 B1 11 BB B4 D5 C1 9A
 A8 CA D7 E0 AB 88 6C 88 9F A9 14 85 A3 15 51 10
 1C 35 B6 77 48 55 F8 3A 92 57 AC E3 56 28 72 BD
 99 DF 6A B6 06 66 E9 5A 89 D0 8F E8 19 E7 F2 BF
 58 59 F9 19 A1 4F 8B 0C E7 8C 03 41 0C 37 8E 2B
 59 CD 8A 98 64 9C 0A D0 C4 BE DB 34 1B A2 04 18
 6A BC 2E 5E 17 80 71 3B CD 2C 72 47 01 17 C3 12
 9C 40 EA 28 E4 27 60 CD 72 F8 BD 6F 58 95 C7 CF
 5B 77 4F D9 76 2B 46 4C 1B 7E BA A4 C2 E6 4A 7E
 4B AC F1 38 D7 C7 A3 17 EA 5F 3C 49 F3 CF 2D 48
 10 50 04 E8 A0 FD 9B 5F 3B C7 21 A0 9D C7 3E A7
 F2 FD 21 07 8E DD 59 BC 9F BF 36 34 1F E3 64 43
 A9 80 B7 B4 82 2B 91 5F 16 18 7C B4 CB 48 C6 60
 C9 56 12 3B 5A 03 F3 5B C4 4C 61 82 D5 25 B0 74
 B6 C0 33 43 C0 45 EF 58 E9 94 BE 16 CF 01 41 09
 DF 2D A0 28 51 5D 7C A7 29 0F 90 C1 F8 15 CA 73
 65 7C CC 0B C0 BD 36 86 97 C3 BF 14 1A C9 16 E4
 D6 6B 94 56 78 EE 87 EA E4 AB 9B CE AA EC 66 33
 0A E5 9E F6 4A 4A 96 E7 17 BB 10 F1 37 A2 17 48
 C0 2B 85 51 E0 5D 78 84 BC 55 36 4A 67 72 97 7A
 91 D8 B0 17 6B AA 07 57 6A 37 18 80 84 9C FC A2
 EF B5 33 22 7D 65 0E 02 85 07 58 28 1B 66 05 2A
 95 7D F1 CC 82 C5 B1 D2 48 DB A7 12 A9 29 B3 B7
 A9 79 08 78 2A CB A6 93 70 D2 BF 49 CC 98 69 FA
 32 0B 3D BB 19 8E 5C EA FA 41 AE 3E 3C 8E D8 E1
 81 26 28 CC BC 75 BA 89 A8 6C 15 3D 4A D5 0B E7
 32 AC 73 D9 9D A0 02 89 84 FA A8 BC 4A C0 33 30
 E4 50 A3 33 B8 5D EE 1B 1C 7F FC 5C D4 4B A1 54
 47 F4 F1 D6 FD 4A 18 5A 98 0D BF 3B 85 1F C3 33
 98 2E D5 5E 5F 65 1C 52 36 18 68 A2 57 61 0E BC
 0D 60 28 8B 71 90 BB EA 38 1C 3D F7 4D A2 06 62
 39 2D B0 F6 95 61 A2 38 3F 59 73 FA 9A 79 B6 3A
 51 D9 3C EE 6A 57 F4 D3 07 76 29 AC 22 A5 30 7C
 54 2C 7A 9A E0 F0 39 83 9E A8 08 92 03 3B 21 C0
 6B C8 89 C8 07 3C 28 8C 2D EC F8 07 2B 40 F6 3D
 A6 C8 01 77 96 27 9B 4D 01 36 23 6E 48 32 F5 6F
 97 F7 0B CB 35 D5 0B E9 42 D9 A9 32 AA C7 ED FF
 94 A7 BE D0 56 83 89 47 A0 30 D5 3F D7 AE CE 9C
 02 90 53 E9 A5 46 28 80 AA 39 02 39 B8 0A A4 52
 B8 E9 A9 6A 39 E1 AD 06 EE 58 83 0C EC 2E BC E2
 80 72 B2 93 A1 53 F6 2E 04 BB 7C 16 E3 F5 84 B9
 41 6B 2D AA 4A 85 CF 03 3D 4A 99 35 28 EA C6 FE
 37 57 CA 36 23 79 40 67 E0 43 23 46 6B F3 AC 78
 46 CB B8 95 4B E6 AE 0D 32 4E D3 B9 C2 A8 57 51
 7A C5 64 21 96 7B 9E B3 8D 15 AF 72 68 52 CA 4A
 D6 2B FA 74 26 9A 42 B0 93 72 AA BF F3 75 09 FA
 9B 57 E4 6C 74 2D 85 D1 B7 89 B1 0E C6 6C 87 7C
 55 D5 23 37 E5 24 8A 27 C9 64 85 B9 04 95 5C 6E
 92 EF E5 BB 65 D8 1D D2 A4 4C 8E 38 69 24 66 89
 A2 87 C3 AD 4C DB 0E E2 BF 9D 6B 5F 70 7A 0C 01
 FA 1B 8E 5C 89 7B F2 A6 04 41 C5 81 78 C1 1C DC
 11 C2 0F E5 42 72 E9 F5 37 30 E3 B0 7D EF B9 AC
 BD 74 51 90 F3 73 FD 3B 9B C1 D2 2D 87 72 44 77
 ED 9B D3 12 97 0D BD B6 22 CD F3 56 CB 6F 6B C3
 58 F1 78 F1 AB 69 6E 95 D8 F2 58 47 09 38 89 26
 18 88 C1 31 22 5E 52 F0 CF 92 E4 0C 1E E9 54 C5
 CB C9 C0 FD 8F 99 49 B6 3C F8 C9 C9 0C C2 4F D3
 35 27 B7 E3 79 70 9E B9 E6 C0 56 94 35 5B B5 30
 47 8F 7E 20 3E 87 7B 0B FC 53 EC B5 1C C4 A9 FF
 B3 76 24 0F 20 B9 4D AE 4B 80 55 3F 00 78 6B 1A
 C9 FB E7 68 80 10 94 37 DC DB 06 17 34 2C 2B BC
 C9 05 B9 47 6F 37 03 C4 76 44 7F 06 ED 70 B1 FD
 BA 15 7E 5D 5E 19 B0 58 25 60 42 B6 98 CA 6E 94
 41 85 E9 07 CC 53 56 B6 AE 28 86 07 9D 5A FD 88
 DD 4A 0E D5 C8 B6 D4 10 07 5E 48 32 40 F3 46 77
 59 4B A5 5F D7 50 FC 23 FD 87 9B 75 3B 84 F5 F2
 61 A0 99 13 8D AA AE 1A 6A 37 51 8E DD 57 3F 1F
 3B 7B 8A FF 5C 54 21 3F BE 3A 07 39 C6 D0 57 55
 6B A7 13 F5 DB 9C 1E C0 2A E7 D3 5D E4 54 63 2E
 6F EC 29 74 B7 D0 03 FB 4D 72 59 15 EA EB 20 38
 6A 1C DB 3E 80 77 BC 74 86 56 E7 4E 9F 3D CC 05
 32 EB 60 45 D9 F0 5F 78 3B 7F FD 6F C2 DA 1F E0
 C3 82 C5 A9 30 C2 54 78 33 EA 9E A8 81 57 68 A6
 62 2C 13 C2 DD 68 48 13 82 33 86 69 C8 C0 6C 73
 40 F1 9B 02 75 E7 B3 7C 9B 68 76 82 94 25 6F 24
 BB 38 CB 5D 3F 9E A0 93 90 04 55 44 27 17 26 F8
 10 78 C8 ED 46 D0 89 AC FA DB E3 07 21 F8 E2 70
 1B C9 61 6E 8C 53 3A 1C B8 45 43 DF 7C 87 5F 40
 89 62 3F 24 98 35 D0 10 39 24 AA 0F E0 AC F3 18
 FD 39 A7 A3 4D 0D C3 58 42 2C 4A 5F 06 DC 5F 2F
 B9 46 E4 2D 79 EB 1D EB 4D CC 66 92 B5 70 76 4D
 D0 4D 33 9A 45 20 38 48 95 7A 7E B3 2E 8B 68 36
 FF 11 7B BF 76 65 31 02 7E 61 91 69 31 47 B3 F3
 BD F3 7B 15 67 0F BB FC 9E 94 03 5E DE E2 CF 34
 75 DD 48 EB E7 83 F6 52 39 6C A9 81 01 9F 3A FA
 02 C8 9E 06 47 08 68 0B 37 36 EC 12 F5 95 B9 64
 B9 70 E8 89 E4 87 A8 A5 72 0C 48 D7 A6 D5 ED C1
 16 39 D7 F1 28 06 EB B2 22 A7 2B A7 34 4F 72 4E
 F6 78 B3 C7 51 A9 C8 8C F9 D6 0F 48 FE 23 7C E7
 8B 19 C4 23 9C 22 7A 59 D2 E9 EA CE 6C CA 17 05
 33 60 51 B9 F0 3E 8A 69 CB A8 CE 64 D4 71 39 E2
 A9 3A 4E F8 95 55 CB CE 7B 42 A7 34 24 5E EE 02
 F1 E7 32 75 4E 66 33 CA 52 AA 4D E7 17 3C 33 AB
 81 75 3D 37 7B B6 B1 71 6C 12 4D 9B 8C BA EB 52
 B1 C1 F0 08 48 35 3B 53 4F 86 67 A0 DC 61 50 78
 C0 3C A2 D7 8E 0C 98 E1 83 48 00 F4 E2 BE 8B 37
 31 7C 0C 9F E6 A4 C7 8A 65 EE A0 85 5C CE 52 B1
 10 30 75 B5 B6 10 DA 59 D7 AA 34 31 BB C5 09 32
 CE B5 1D A0 CB E1 37 47 EF 21 6B 45 7B 8F DB 94
 83 C9 99 AF 3A 27 64 3B 57 D4 91 7B EF B6 0E AC
 37 4A F4 E4 6A C8 E4 7E 27 AD 81 AC B2 85 AB 81
 6D 28 FB 6A 97 16 B2 D5 A5 7B FE 6A 10 EE CC F7
 9B 63 7E AA E5 2E 06 AA 91 F7 B4 E1 AC 73 FB 52
 60 51 E6 84 13 77 67 B1 2E F4 9C C7 9F B5 1B F5
 06 74 14 81 42 5C 35 57 07 D8 93 C7 7C 4F 04 99
 6B 97 89 65 08 63 28 C3 EF 12 C4 74 0F 82 F0 1D
 4E A9 7D E9 8F 1B 94 AC 16 D4 A0 18 3B E9 23 B9
 0D 0B 95 3D A4 F3 FE A2 7A 21 98 3D AE 98 D2 FB
 D5 49 4C 24 68 70 C4 D2 22 9C 5F E5 E0 6D 46 C9
 45 C5 1E E3 8B A1 78 82 D8 F6 54 3D 3B B7 F2 E2
 C4 90 F6 D0 8D 47 F1 4A BE 9F 88 96 FE EF 3C 2E
 31 D0 2D A6 E6 37 50 01 5C F4 D0 44 E1 E8 32 16
 A6 5B 10 FF E4 B0 FA B1 48 AF 61 FB 44 14 2F EE
 22 8A F9 22 42 12 A3 BD AA BA 32 C1 97 B5 B5 37
 A8 9F FC 61 D8 73 E7 CA AB 5E 4F C3 0A DA 04 A6
 8D F1 F8 EC F0 25 87 D4 DF 6B 56 62 30 BB E3 4E
 AD 78 4B F6 7E 23 DD B2 BF 8E D2 F8 C4 50 59 FC
 B6 9D 59 6A B2 CE 1B BB 85 21 92 AB EF 16 18 96
 85 E9 F7 67 84 72 4A A2 0B B9 79 58 65 EE D8 D7
 64 A5 F3 90 11 AC 27 C8 80 F9 E1 01 26 E7 64 E3
 9E 9F 54 BD 3B 0C 87 4F 56 11 47 34 18 84 CE E5
 03 3B 67 44 56 5A A8 2D 35 62 3F 55 FE 12 3E 7F
 BA 50 13 2B E3 8B 23 14 E8 E5 EB 3C 7E 8A 6D 7F
 41 D0 D1 F8 DE AD F0 CE 81 BD C7 FF 44 4A F8 84
 39 59 6B 7D D7 BC 19 51 47 4E 12 48 B2 6E 0F D5
 B8 2E 58 A4 D2 23 54 9F 69 07 C2 48 5C 07 94 1A
 05 AE FE 0E AA 3B 17 23 79 60 EE 00 F2 50 82 82
 31 D7 58 C2 3E F3 27 42 9F 91 F0 01 1A B4 4F 03
 15 34 46 EC 12 5C 17 DB 2C 5F 45 2D CF 6E 64 06
 70 9E 49 9F 90 F8 EB 62 17 A2 2B 7E CC 55 F1 CC
 D3 E7 0D 14 7E 67 42 50 67 0D 22 0D 9A E8 B7 3A
 78 1D 71 2A 7E E0 C7 6A 32 A4 35 FF 2F AB 48 2B
 AB 5E 1E 45 52 4F B6 55 D6 6D 7D BF F2 10 DB F1
 0C 0F 80 8C 60 33 99 E9 57 A0 38 53 FF 19 AB ED
 54 BF 36 47 C7 8F 5C 14 A7 CA 3C 54 6B 11 73 F6
 6A E6 D5 11 9C BC 85 60 46 20 9A D6 80 8B 2B 73
 9F C5 FE 50 01 4E 98 6B 63 74 38 73 95 40 A6 12
 7C B5 8E B5 E8 49 C1 95 37 01 E9 7C 56 8B D3 7F
 07 4B A8 DF AF AF 60 8F F9 24 DB 14 E8 0F CC 20
 B9 49 81 F5 1D 3A 8F 12 4B 12 21 B3 AD 79 71 FA
 83 61 7A 14 DA 24 96 58 88 55 96 2E B3 21 2A 99
 96 74 44 94 F1 04 12 8B 3D E4 53 1A 3C 74 AE 1A
 FE 99 98 AF BC DA 3C 69 34 77 01 F2 96 7B 5A 52
 7B 67 68 BA F0 F6 FF 07 23 55 C7 B4 21 F8 8D 66
 A5 AC A1 AB CF E6 A2 0F CE 70 0E 1E E1 CD D6 0B
 C2 F0 72 1D 6F F4 06 F4 1E E2 16 B8 A6 04 B5 51
 70 0A BD EF F7 2F 98 17 B5 0C C3 44 7E 07 A0 95
 40 FE 3C 32 76 AB 74 0D 3A 3C E3 E9 19 7B E8 14
 3B 3E 25 87 72 3D B1 95 44 22 13 1A 78 3F 13 31
 56 6F 18 39 4E ED 49 71 F9 46 81 33 89 B4 B2 AA
 38 FF 4A 79 33 12 8D 13 AA 5E 70 CE 4B 5D AB 9E
 BC CA 64 13 FA 87 39 45 06 41 BF EA 58 3A 6D FE
 50 DB D1 46 A0 62 55 A8 79 68 3C 12 9E AC 6A E8
 5A 5A B9 16 65 B2 15 5A 13 77 49 A7 36 4C 85 23
 1C FE 17 79 E6 39 14 9F 2D 89 59 19 A9 B5 51 C0
 53 95 5F 0E E3 51 92 FF 78 E8 60 A4 8E E9 22 7E
 B9 0E 11 09 72 DB 83 BB F4 5A F0 5F 6E E8 36 31
 DF 21 39 E7 66 EC 70 71 A1 57 03 E6 A5 31 2A 88
 D6 2D D5 0A 9A 26 BC 45 9D EC 09 3E F3 47 00 6E
 67 F5 4E 6C 7F F1 F0 1C 81 D9 93 30 9F 4D D8 6F
 87 5B 9A 50 D0 FA E9 96 CB 12 EE E7 F1 37 D0 5A
 BF 77 2D 24 B2 3E 48 3D EE 37 B5 13 15 0C A7 FB
 54 17 EE 05 70 45 01 97 11 A4 8D 75 B6 1B 9D 19
 CA 6B 55 E0 2A A7 D9 50 3D 37 37 51 3E C6 DA 08
 07 1A F2 2D D0 5E 30 29 4D 1D 52 FB E3 95 E6 C7
 AC B8 E8 E9 04 A6 07 6C 12 92 B3 E8 32 98 0E 3D
 B3 44 24 B4 CB 44 59 74 EB C8 C2 92 A7 FB 9E B6
 97 5A A3 99 30 88 51 8A A2 99 29 83 A4 04 49 E3
 57 FA 53 D8 AA 7B DD 5E 1C 10 6D E8 D1 58 65 3E
 AE 12 ED E9 5F D5 91 10 02 00 19 AD A7 26 C0 34
 84 36 68 20 A4 8C C6 19 2C B5 B2 D3 CB 50 8D A5
 36 AE 5E 89 53 48 27 4D 20 9D 38 70 50 99 0F 0A
 87 A6 DA C1 76 2D 88 94 BA 80 3E 22 1D F2 A1 03
 FA 7D 55 81 1A DD 70 F4 52 CD 70 A8 60 B8 5B 64
 FC D6 04 F7 22 4C CE DA 3F BF CB 14 A5 D6 9E 48
 85 13 8A A3 8D E5 06 F2 58 36 0B CE AF 3B 82 5D
 B3 8B 6B 4F CE BF B4 4A 92 C7 CA BE C6 BA 3C 48
 AB 07 E7 EC 6B DE F9 F6 6F 41 ED 65 37 97 61 DF
 41 6B B7 2F 15 ED 71 6C 11 1F 57 97 F8 99 48 7F
 FC B3 45 2C 4F F8 FF 7F 82 32 80 2F CC 89 3B C2
 73 A5 E5 C9 0A 1B E0 BA FE C6 89 07 1B E6 51 F7
 33 DC D0 E6 19 1C 0F A8 12 78 27 4A 8E BB 71 9D
 56 DA C6 C3 7E CA AA D2 45 C8 10 4B B2 78 66 91
 13 27 93 C9 0B 50 A4 93 BD B0 D8 C3 AF B1 72 6D
 E3 1E 6F C0 AA C0 27 BF F1 96 30 6D E6 7A 7B BD
 27 13 46 9A E6 04 CC 96 36 32 BA BD B9 FD 8D 43
 20 6B 23 07 A0 0F 85 72 78 67 5C 2F F6 5B BC 07
 42 06 30 E3 DF 17 43 D7 66 32 0C 78 02 C1 C2 47
 63 4B AE D4 C3 64 9E B5 31 C3 38 48 B6 C3 46 EC
 06 DA 3F B0 E7 C4 4A E7 B8 21 AE FD C0 BA D9 D7
 90 B1 C3 D7 81 93 A7 64 E6 DA 81 C2 D5 33 35 7A
 85 F9 61 BE 06 E4 E0 D3 DC 3C 9F 23 27 40 08 14
 64 60 C6 F0 9F 76 D9 BA E1 30 B8 42 C0 6F 43 DB
 8D B8 65 A6 EE F0 CB C0 92 DA 55 35 91 3A BB 73
 2C 4C 7C 53 E4 49 11 6A B4 74 C6 A1 84 C8 EF 8E
 53 78 49 B9 5E BB 14 45 D6 9E D3 6F 59 1D B9 C6
 44 B0 EB 3E 3B 5D 68 FB C8 74 41 74 AE 6E 33 4F
 0F 4A 37 F1 07 EC 1F 0E 94 FC 60 D1 D1 14 AC B7
 8A 2E E5 A2 31 AF 18 14 FA DE B6 2A 02 CF DE 58
 B3 7D 53 08 CA CF 7A D7 42 AE 07 B6 D5 21 15 C2
 89 E4 7B 3D 89 66 08 48 FA 9B A8 71 6B 0F 37 3B
 21 91 1A 9B 90 29 C9 01 8C 34 58 74 30 0C 91 58
 5D 70 86 9E 9A 05 0A 23 7C 02 C9 A4 66 29 DF B7
 ED C8 3D 4B F6 04 53 BC C0 AF B6 ED A3 36 90 CB
 D0 FF B0 41 F2 8E C8 A5 05 B5 4A C3 AF 92 67 D6
 4B 13 05 31 D4 DE A5 3B 09 A6 6E C0 A2 34 AE DF
 4E 9B B9 75 15 D3 C2 68 0F 4E CB C7 DF 5A 7B AD
 B9 51 83 D4 03 B8 1B 6D 3A B4 93 97 3F 32 6E 51
 9A 3C A0 EF 95 D4 A6 69 54 24 E9 A1 5F 49 41 FA
 65 61 77 26 01 29 AE FE 55 96 3A C9 EE AA 93 03
 71 2F EB 02 6A B8 7C 50 E3 0A 57 B7 FE 6C 90 07
 FF 66 FA 06 39 39 1E E1 47 C1 85 16 9E E5 C3 D2
 ED C4 B3 D9 23 16 84 42 82 79 F3 68 DC EA 81 6D
 8A D1 AD B5 18 DB 72 C8 06 12 9F 5D 93 1D 1D 07
 C1 F0 4A D7 18 7E 8B 41 AB 6A B1 85 3C EF AA 47
 DA 28 B4 55 22 9D 9E 05 09 E3 19 DE 30 73 24 6A
 45 ED 38 23 6C DB 2F 93 E3 C1 46 C3 6B E7 DD 92
 50 A4 C0 F9 50 B2 BE B9 63 83 E2 F4 2A 60 55 62
 55 95 A8 5E 10 1C 35 89 F0 82 00 A3 79 B2 79 FE
 61 80 C4 5F 83 B0 80 15 E2 73 83 48 0D 18 7A 69
 8B 79 66 87 2B DD 6A 58 94 47 2D 25 B9 F7 44 8B
 8D 9F 26 49 8A 97 59 71 80 B6 BE 50 A6 23 41 0D
 58 BA A0 DE 82 32 E0 F7 7E D6 93 F7 4C 8B 49 46
 22 8C 5A 2E 10 53 44 3C 98 4B 3B AD 07 1C 15 D2
 28 C1 ED 71 35 32 05 D2 02 25 3A FC 80 DA 22 0D
 9C 37 6D 2F B9 44 62 86 A8 3F 3F CD 6F 6A CE 61
 64 42 FD B7 EC D1 2B EC D0 64 BB 5E 53 86 30 05
 20 47 B9 7B A5 80 53 88 3E DB 20 5B CD 6F 73 AC
 BF 3F FA 25 F0 EF 31 FC 08 F1 E0 23 AB 06 96 22
 5A 27 B7 BF 18 B1 A0 84 A7 6E EF 42 47 E3 45 E5
 C8 84 3C D6 7F 8C 2C 92 BF 8D F4 E5 C1 4A 78 2C
 C1 25 70 80 B1 B4 FF C5 37 AA 0B B4 CC 25 01 42
 61 B7 46 C6 FE F1 A9 42 E4 30 AB 0F 55 F6 71 94
 87 01 D1 F0 15 98 E4 10 B4 C2 A7 74 5D 73 E8 AA
 42 8A A6 93 BC 72 7D C7 08 07 B3 51 97 0E 4A DC
 FC 2E F0 EC 91 9A BC 46 05 59 31 92 62 2C 5A 17
 4C 5A A8 0C E7 51 80 77 3B D0 21 83 44 AE C2 83
 30 D1 20 FD 84 12 3F C5 B1 B9 AE 52 FE E8 28 1E
 A0 D2 91 F2 4F BC EC C8 B3 46 39 8A 06 E2 FA B4
 EE C6 70 9B FE E5 60 43 13 CF 15 E0 66 F3 64 8A
 13 73 83 5D C2 BF 30 29 12 71 6E 83 69 16 F8 66
 09 18 3A 6F F6 23 AF AE 75 92 78 83 3D A7 35 5E
 46 54 E7 BF E8 0D 9B AC AB 9A 39 5E 18 26 14 78
 19 EC 8F 3E 12 BE 8C BA 55 EA B2 1C 80 F5 23 6D
 BB B6 AD A2 15 32 38 E0 DA 8C 84 76 69 41 13 64
 7A 82 EB 8E 7B 67 47 BC 8A AB F6 98 AB 35 06 1B
 61 FD B0 F0 0F 81 F5 19 A4 51 48 C5 CD 69 DE C6
 02 6A FC 9B B2 9A 75 53 BB 62 06 83 65 3E D2 A1
 2F 9F F7 13 4A 48 7B 0A 00 BC C1 6F 39 7A 69 FB
 B9 F5 FC 70 96 DA 1B 28 AB 88 13 F4 9D B9 F3 B4
 85 13 7F 8B 5A 04 B9 88 F6 14 B8 2F C7 E3 41 CD
 1D 35 98 FC 41 57 60 63 44 0D CE B7 87 D2 E3 8A
 57 56 63 21 68 95 B4 0D 72 52 7D 60 A4 69 75 65
 D1 6B 5E 77 03 CA 11 6B 4C 10 06 39 4C D5 10 13
 7A 25 4D 08 BA ED 7B 5C E3 CD A7 DA A8 09 A0 1D
 DD CC 9F DF BB 2F B0 DC 5E D9 F2 07 1C 6F 27 85
 78 81 93 62 01 4D 1E 34 FF 31 6A 0D E0 32 62 3A
 0C 06 8C 2D 2B D2 EC 42 F7 78 7A BC 6A 0B C2 15
 E6 A9 D1 C0 08 81 58 0E 9B 4F 51 07 4A 2F 73 DB
 92 E4 6D 89 B7 BA 94 CE CD DE 90 98 2C 27 7E 24
 9F 52 C2 AE 8D A4 77 4D BB 23 7C 27 08 56 61 57
 81 D2 74 15 64 17 E6 8F F8 F2 54 F8 B8 BF 34 CB
 36 2F 72 4E 86 43 4E C8 31 C4 D5 09 93 99 F8 14
 44 E6 29 91 8C A9 B9 4D 0B B0 3E 0C 72 D3 6D 68
 AD 6A 64 7F EC F1 AC 8A BB 31 23 00 BA C8 63 94
 67 14 EC D0 EB EA B5 83 2B 66 4C 4B E4 C7 5E 04
 05 BD B5 8D 4D DC 5A 60 C5 DE DB 79 11 9F 46 E5
 0D 45 B6 E0 19 B4 21 D8 F7 81 C7 D5 AA 65 60 5B
 3C 3B 58 85 48 C6 89 96 2B D9 D6 AC 5A B6 05 9E
 AB 8D 9E DF 2E 71 66 E3 9E CA 24 61 59 0B 68 67
 90 E2 59 2C 75 44 43 E9 32 3D B1 58 47 F9 F5 97
 A9 83 6F C3 02 BC 47 27 C8 5E BF 1B 8A 09 93 C0
 55 34 30 61 5E 0C 1D 7D 7C 54 1D 04 55 23 EE 0E
 DA 5C 4F 2C 7F 12 5A 26 E5 FB 4C A5 01 48 A6 7F
 55 D1 57 36 67 34 70 27 0E 72 0D E7 53 FD 8D B8
 8F 53 43 40 BC CE 14 5B 3D E9 6A CD 5A DA 10 06
 0C DB 90 FC 3B 9F 91 EF B2 D0 24 92 C6 5F 48 94
 A9 3B 9D DF 32 E3 C1 34 77 41 1C 7E 68 7D 62 86
 33 22 84 57 CA F5 5D FE 7C 79 D1 39 60 EE 46 4A
 0F 94 FE 9D AD CB 71 E2 D0 65 8D 8F 5A F8 87 A2
 B8 52 3B 43 A5 88 0C CE 95 1F 37 D0 7A 97 A3 E6
 90 1A 67 12 60 64 83 D4 E7 96 9C DF E3 33 93 06
 02 5C D2 54 A6 3F 7C 17 9E 40 FE F5 91 71 57 56
 65 04 89 0A 1E 2C 9B AD B2 BD 3C 39 7B 60 E8 96
 80 5C D6 7D 6C 78 26 CE C7 42 61 8C A7 38 A0 65
 2F BB 8E 4A D5 98 91 B2 31 7D 1E D7 F3 D2 0D 7D
 CF 3A 48 6D FD 68 C4 B8 AA D8 7C 45 94 10 48 74
 98 1B F5 77 53 ED 4B 39 5B 2B 1E AE DE BB 59 51
 80 AD 32 EF CA 78 DA 7C 6A 06 0F F1 24 62 C0 C1
 06 A6 E6 1C 42 BD EE 8E EE 56 26 8E 23 63 CE 1B
 56 A1 02 F5 B0 F3 CC 16 9A D2 3B A5 3B 05 63 74
 55 7B EE 14 AC A4 0A 44 51 A5 E2 71 2F 45 5B 33
 DA 7B 25 25 51 39 00 AF 50 F9 4D CC 02 F2 4D 4B
 46 3D 5E 75 36 56 EE CD 9C 38 D2 CE 9F 76 7C C1
 B3 58 79 30 FB 96 AF 69 6C B8 87 DC 9E C1 3D 2F
 A1 46 DD 5D B4 58 11 48 5B 2A 01 B6 98 AF 56 6D
 5D 66 95 73 31 6E 37 01 93 12 16 45 EB 97 7F F7
 DE BD 31 C7 FD 46 56 05 54 F0 51 C1 1D E3 6E 7F
 C1 5B 62 0B 9C 01 5F 13 96 3B 39 29 73 6C B2 69
 80 C0 70 18 23 72 6B D2 71 BD 16 3A 92 DC 03 8F
 61 BD 95 15 0C 40 B0 2C F7 BF F8 E4 07 DB 21 16
 BD 91 D4 AC 05 3F 51 02 59 EA 8F 27 04 72 12 A3
 9E C1 C0 4C 27 BC 4C 3A 61 85 04 05 AC 09 B3 D9
 EC B2 8C 63 46 6B AB D6 4A CA D9 C9 FB 87 6D C2
 2C C1 96 99 A2 59 44 58 03 7B FA E2 CF E9 92 5B
 3E 8D 76 52 5A 67 E3 22 92 91 33 8C 0D 37 6C 95
 00 8E FD F0 13 9E C6 70 1D 2E 0B 32 40 CF D6 FB
 E0 B5 E3 06 64 57 1B CE 8A AC 46 6B BE FA C9 53
 A5 22 83 D5 20 B0 66 0A F0 F4 56 7F 2A 2E B9 38
 80 06 E4 F2 84 E0 62 BB D7 D2 AD 7A A4 B6 09 95
 65 42 B2 12 71 D1 7C E9 9C E7 B0 EA 34 46 60 C9
 BC 44 1D 30 1A 0A 70 F1 E9 D0 BE 62 5E F8 9E 59
 C4 E6 E6 8D 18 DB 6C 25 EE FF BA 13 69 AF C4 8A
 B1 02 22 CC C3 88 AE 9F 89 92 8A C3 AE 6C 83 F6
 2B 00 BF D2 8E D0 9C 07 52 95 40 38 3E 8D EB 02
 0C D7 DA 4B CD 32 C7 35 B0 43 E7 71 1C 44 61 21
 B1 C8 14 AE 87 2D 7D 6E 1D DF 60 40 63 AF 18 9A
 9A 4E 2C 9F 93 D8 EE A8 EC AC 8A 81 C9 31 2D 8C
 AD 7D 23 04 50 2B 57 2F 6E 98 C2 02 1B C6 9A E7
 DF B3 C5 E3 68 4A 1D 97 CD BE 34 2F CE 50 6D 7B
 50 49 44 3C 3F 30 B7 40 55 C1 02 92 F4 A0 20 0E
 DE 00 1C ED E4 B8 93 3D F1 BE C7 9D 54 95 5F 9C
 BD A5 E2 38 F3 59 8C 58 FE A1 D2 5E 2F 6C 22 54
 E3 6F F8 3B 43 61 FB D4 25 09 85 7F 42 40 76 9D
 ED 59 8D 9A 08 41 52 F8 9A 8B 84 99 30 8A C1 5C
 34 AE 61 E4 57 2A 41 0D FF B6 34 03 0A 6E 93 4A
 9E 98 18 E3 1E D6 F0 D5 0F 88 31 28 0F 29 59 6D
 AD B8 BB 68 F3 69 74 45 6E 80 FE 82 89 6E 13 8D
 61 88 4C 7A 7F F5 D6 77 46 37 AC CB 73 D3 3A 38
 5F E1 8B 1D E8 B8 77 D9 35 1A 01 CB FE 00 73 BB
 36 D4 BF 59 66 8D 71 55 7B 68 7A D4 9B 0A BB C8
 42 39 DA 5C BA 96 A0 A3 3B 27 09 F0 16 24 D2 D0
 B4 2E 5B 4D 01 33 1F 63 86 62 99 08 A5 D4 9B 88
 1A 61 6E 48 7D 45 8E BD 99 B2 EB 33 21 AC 8E 30
 60 4A B2 9C CE 17 99 13 A9 30 2B F6 78 4E 7A 08
 F3 2F DD 35 9C 12 5F B2 12 B8 B9 4E B7 EC 4C CA
 3A 18 EB 11 99 27 AF 4E 61 14 45 7E 77 17 67 24
 FC 16 B7 98 F3 5A 0B 84 F6 4E D2 81 83 C0 27 8A
 F3 1A CA 41 A0 F6 F4 0C B0 90 BA F4 FF F8 B9 03
 24 9C DC 86 1D 25 89 5B D6 95 18 98 0B 27 08 BF
 63 C5 50 05 91 09 30 AC 67 ED C7 F8 BB 0F 65 9D
 A8 35 CD 30 02 52 24 E8 9D 67 A5 C9 EF BE 95 63
 09 30 30 F8 89 AC 01 5A 1C 40 7A 29 0A A3 AB 7D
 75 81 5E 8F 34 F4 2C 93 42 CA B2 5C 80 9A 55 20
 56 E7 76 E3 18 A0 B0 44 53 15 89 12 79 07 51 68
 40 D7 18 E2 FF A0 2A 6B 10 DB B3 0E 57 85 66 F3
 93 66 BF D4 3B 35 24 29 7F A3 4E B9 95 CC A0 51
 DB 57 70 90 E1 A9 9C B5 B9 D5 E6 0A 5A 54 59 74
 BC 80 C3 FD F5 F8 51 48 80 8E 81 7D 46 94 A9 62
 76 70 1C FB 61 38 04 80 E1 8A 76 71 DD 46 62 EE
 4F BF F4 77 3D 7D DE 1C 39 83 C3 70 99 C8 65 28
 1B D8 DB 10 7C 32 E6 82 C5 76 AB 88 82 4F DA E3
 97 FC 1F FB DF B8 84 53 BB 54 54 BF F8 F4 B4 E3
 12 AC 43 14 9E A7 BE 81 9F D9 52 4E D3 B4 2A 66
 5B 21 67 C7 13 DB 7A 38 79 57 58 92 DE 27 7E 76
 E0 F4 E0 D3 5E 76 1D F8 59 79 A9 B1 7B 18 51 CB
 C4 05 02 57 86 7F 6F 7E 8C BC E9 72 54 29 6F 32
 AD 4B 65 E0 B4 97 A2 60 5E 54 3D 57 6A 7E 9C 7A
 93 F1 B5 9E 47 05 C2 46 B8 AE 39 35 B3 1E 27 57
 88 16 0C 3E E6 DC E0 F3 75 8C 08 60 C1 82 CE 00
 C3 C3 05 25 18 AA 7A F9 09 BE 10 05 B6 FB 54 B5
 3B 2D 12 79 3E BA 9A 80 3C 6C 40 3F 24 C4 D1 B5
 A8 28 F1 9B EA AE A0 B6 DA FD 70 F9 43 3F EA D7
 96 BA 11 EE 2A E7 13 4B 0E 40 BE 98 09 C6 EB 41
 21 19 3C 61 AD 39 22 83 6F DF 44 4E D9 5F D8 3A
 38 B5 AA DB F6 D1 89 BB 54 03 5A DE BB 7D FA 7D
 C9 5B 38 27 33 97 C6 09 E1 D5 CA 63 22 AF 44 E5
 4C A6 B4 8E CE EB 41 04 32 23 23 C7 EE 65 CA 12
 70 FB B4 19 CC 38 1D 24 B4 E7 BF 33 31 08 B1 58
 3C D1 54 52 F2 B0 73 84 6B B7 54 35 FB D6 28 5F
 CA 8A 13 54 92 E0 F8 6B 4C F8 49 E2 80 0E FE 7C
 F5 13 1C 97 2B 16 F1 64 37 88 25 48 0E 95 05 B9
 6C 0C ED EF 1B AC 62 74 DF 84 13 CB A0 D0 E7 0D
 32 03 2A 1D AE 40 0D 38 46 B6 E2 6D D9 42 22 B8
 78 4F BC 1A C6 CA 6A 19 E8 FC 79 07 47 2C 9D D5
 52 54 78 3D 49 E0 6C 3B 3D 6B 2F 40 22 1A 38 37
 C1 D1 A7 65 67 4A 20 72 88 2A F3 5E C2 B2 1B 60
 67 D3 02 C0 0B 56 67 0C 23 A8 F6 19 2E 6F ED 9C
 BB 82 34 B4 B2 D0 3B 57 5A 10 65 89 E6 E5 6B 5A
 3E 7A CC EF E6 2D 66 59 30 3B 3F 3A DA C4 6D 30
 48 75 DB D3 11 D4 42 45 CF 00 59 28 C3 B6 C2 94
 14 99 FF 25 EB 8E 27 BC 9E 68 AE 63 ED BA 0E EC
 7C A9 54 91 27 3D A5 4A BF 1B 61 D0 2D EE 41 36
 F5 48 BC ED B6 D8 72 06 C2 A6 C8 AB D2 12 17 79
 07 49 4E 5F 2E C2 A6 5E 92 F7 51 1E 23 1D 66 1E
 B7 74 87 B8 18 FC 13 E1 EC F0 A4 DD 0E 4A 51 98
 6E 4A 2C F3 A2 DB 40 EF E5 E3 52 53 9D 5C 7E 3C
 8A A0 20 BF 3A 6E 05 3E 9B DA F4 2A 18 8E 00 3B
 33 D3 31 CD 9F 0C 92 C8 58 3C F5 D5 D2 CA 39 2F
 29 86 D7 10 56 E0 EE D5 08 50 AF A9 4C A1 7D EB
 0A 4C EF 02 CB 1B A0 31 1F 78 D1 E3 EC 3C 01 DF
 B6 19 53 5C A7 8C 99 13 34 FF FE BF 47 A8 43 B0
 A4 AC 81 61 AB 72 06 D0 EE C1 14 BD 3A 83 FA 54
 9E 37 7F 03 B8 62 A3 72 DD E6 2F F7 C9 E6 2B C0
 12 58 E6 9B 63 66 6C BB C0 C4 55 4C 12 F5 85 76
 21 18 82 22 8D 07 FB 61 39 A0 80 9B 92 D3 44 F1
 98 95 DA 17 2F 22 14 39 7F 65 30 F4 7A 8C 65 12
 73 F5 A3 90 6F 9E 96 BD 40 67 61 C2 1B 1A 07 B2
 10 FA 1C DB E7 5D 6E 89 81 66 31 29 1A 18 8A 63
 67 8B 94 7A B7 6E C3 DB 7A 5A DA E3 A0 56 14 30
 7D 9E 19 93 DA F7 5F F6 3D 21 28 8C A4 1A 85 C6
 32 45 EF 1C 9A 68 46 59 12 AC A9 00 18 E9 20 5A
 CA 9E A3 1C E7 FF C9 FF E3 15 3B BB 3E 3A 29 70
 0B 9E C3 6B 38 28 41 0A A1 32 FD 2F 8D A7 79 13
 C1 CE 01 06 40 32 0A 56 CA 59 B5 7C 07 EB 23 5A
 7E 32 DC D7 14 52 6D 38 64 99 0C 49 43 BB A7 77
 1D A7 6F 9B C8 24 80 22 E0 9C 3F 19 8D 97 B9 47
 BF D1 68 F8 50 A4 77 EE 73 70 AD B3 99 F0 74 DB
 A1 4C 05 36 C5 02 EA 84 89 0F 98 7F 33 37 07 4A
 B7 A4 DF 82 1F 1B 2E B5 28 83 7B 88 87 9C 88 04
 AE 33 E3 E2 E4 0F D3 BE 6F B0 09 FE 35 B3 7B 62
 0F F3 B6 B3 A9 1F C3 C0 33 30 53 63 99 A3 06 E8
 DC 5E 27 98 65 0B EA A8 9B C9 78 2D CE 71 FB D7
 F6 B4 11 99 04 8D A4 DE DA F9 E6 99 79 98 BA 60
 AB 4A B6 11 2C E6 7A 6E 90 BE 92 5E 50 69 91 BC
 7D 2E 5A 9A A3 91 E2 57 09 4C FF EB D6 B4 40 27
 29 C4 84 82 51 B4 12 F1 7B E6 7F C6 31 8B 22 96
 C8 3C 38 64 62 BB E7 FA DF A1 FE 5A 1E 2C F6 3C
 20 C7 6C 2B F4 86 B8 CE B9 26 19 63 91 16 43 63
 22 2D 09 02 34 1A 28 80 04 BA 25 6C A3 A8 02 4B
 84 AC 7F 97 85 81 54 01 0A 4F 9B 88 06 8F F4 5D
 D1 7F 54 0F D1 73 B9 F5 7B 7C DB DE A2 9C DC 68
 E8 E6 73 8C C1 85 E1 A8 B3 72 BB F0 89 69 33 CC
 49 63 67 46 FE 06 EC 44 E0 62 5E E7 50 22 6C A8
 0B 8A CC C7 14 AF 43 64 21 D5 64 EC F0 9C 30 A1
 30 6E 69 04 C3 CE 0C BE 5E F0 60 DB 95 08 B9 CB
 93 B3 4F C2 23 18 ED 10 7F 0F D1 86 3A 36 C5 9F
 44 D0 B6 F1 76 A7 2A C9 2B C8 57 B1 27 B1 C3 A1
 2E FB C7 D6 CD ED 72 71 93 72 11 D8 9F CD C7 1B
 03 64 D3 0F 1F 28 A0 EC 4F 49 F7 C9 B0 B7 94 05
 72 A2 34 8E 70 91 1D 28 83 3C 89 B8 54 F6 C3 95
 A9 FC E2 11 66 EB 38 A0 6A C0 F4 A9 BE 36 68 12
 2B 92 19 7A FD B7 D6 C3 0A 7A 2F E9 D0 9E 79 5D
 58 0B E5 47 6A EC 40 B9 13 7E 5D 6F FF E4 54 4F
 00 C4 FA CD 74 07 7E 70 F5 8F D9 25 E8 E1 1B 15
 F4 33 1C 91 3E 4B 5A F9 33 3A 2E 48 4E 20 43 8F
 3C 26 72 42 A6 F6 FE B5 CF AF 06 3D 3E 09 00 74
 1B 26 19 A2 F4 5C 34 F7 CC A8 12 97 C9 4F 4D 01
 7E 82 DD 6D F1 CA 5E 4A 12 12 C8 45 6B E1 65 F6
 38 4E 73 B8 95 EF 36 C8 10 D1 C7 36 41 90 33 E4
 2A 5D 47 12 81 C2 CD F1 60 FE 26 D6 DA CE 18 E1
 BF 0E F3 D9 3C 93 0C 59 5F 36 12 2C 53 4D B0 99
 26 00 9E 36 3C 32 90 59 76 9E 94 C6 E3 3E C2 22
 5D 37 51 36 20 01 C3 F6 0F 3B 0E E7 26 51 15 5F
 FB 5A 43 C6 65 09 E1 16 3E BB D4 7C 73 A8 97 C3
 33 09 75 F7 BE CC 56 16 7E 50 08 E8 FE C0 36 2B
 D6 CC AC 3F 41 E9 DB A3 6D 45 A8 43 E7 13 89 10
 B3 EE 1D 09 C5 9E A2 68 C7 15 27 7C E7 1F 34 EE
 42 41 2B 3A BC E0 91 FB C0 C9 58 6C 76 A3 E1 AE
 66 32 09 CE 17 97 52 0F 99 EB B7 C4 ED 69 C6 CD
 A2 45 A6 92 33 4C B6 00 94 57 4B F6 75 52 C5 7C
 0A AC 37 DB 43 17 C1 3D 52 D1 9D 58 E1 B7 54 E9
 7B 04 19 A9 3D 9C DB E1 B7 98 49 4C DB AF A8 65
 75 06 A5 67 DE 48 A2 57 5E F0 D0 4E 7A 96 86 D1
 B8 26 39 75 64 1E 4F 59 D0 44 0C 93 53 1A 3A 3E
 92 1C CB 87 1E F4 A0 0B 5D AD 11 4D 42 11 3B 79
 EA F9 97 95 ED 47 82 F1 84 58 69 C7 12 79 5E B0
 50 AE 66 BC 71 92 54 65 32 8B 84 BF C6 80 54 8F
 EC AE 6D 9D 96 2A 75 C3 5C 52 22 28 07 94 32 8A
 0A F4 12 1D 1D CD 42 70 FD 80 D5 27 F7 7C 8D EB
 D1 C5 16 A8 88 C3 1A 30 1F 69 94 24 18 A9 63 D3
 4D 84 B4 FB 9C A5 03 27 80 CB BF 12 70 2E 62 07
 6E 72 C7 ED 27 7E A8 EA 3B F2 A0 31 43 CB 5C 89
 06 DE FF E9 9B EB 34 04 B2 58 06 10 63 F4 BA AE
 DB 26 7A 87 E8 02 25 51 DB B8 01 48 7B 58 E6 96
 62 0C 91 64 67 E0 5A CB 14 C2 81 14 47 4F 13 A8
 C8 23 53 5A C3 DB 61 CC 8F B9 2F 4C 2A 90 DA 02
 42 31 29 0F 66 1F C7 80 83 02 F3 5D 18 45 5A A4
 B2 BF DF 52 6B 0B 61 CB 01 CF 09 89 51 DD 0D 6B
 FD AE 38 E2 F9 35 97 BA 4E F7 15 5D E8 CE 7B 1C
 FA AE 2B 46 08 16 A2 5E A3 33 A2 31 84 66 DA D3
 22 ED 61 8A 97 D8 F2 0F 91 3A AF 91 47 AE 3A 1B
 39 C5 FB 2D BD 26 DF 17 35 50 90 FA FF 17 D2 EC
 D4 31 11 41 BB 2D A9 4F 5D 1A 14 CF 69 5A DC C8
 FE 0E 39 E4 55 23 A6 1A FF A3 9A 12 5C 22 47 76
 26 DF 2B D2 E4 1B 6E 21 5F CF EA 5C A1 F0 49 DF
 6E 8F 62 3A 59 65 5F CC 3A A8 DD AA 5A 62 37 BC
 60 4B 67 D4 57 09 68 AE 49 9B 95 D4 D6 D6 53 43
 78 B8 7A 17 27 59 29 05 4B AB 5A 3B CE EA E1 EA
 96 92 5B CC E0 31 EE E9 AC 6B 3D 8E 3C D3 35 67
 8B 2B 0F 55 CD CB F7 DF 16 45 ED D7 44 10 E0 D1
 7E 08 81 4C C2 BE 69 A5 8B 60 F6 8C 2D B4 DE D3
 27 3F 58 17 A2 12 9F F3 9F FE FF 12 72 CC 28 7E
 A2 5F 9C 12 DF FE CD 8F E5 7E CF BC ED 85 10 5A
 73 43 E5 1A B1 64 83 F0 0D 00 48 11 EE 25 A4 97
 A9 62 53 2C BE 69 01 BF C4 BE F3 19 CD BB 48 BF
 3C 73 69 E8 5F CC 41 FD A7 22 DB C1 1A 61 45 80
 1F 15 73 15 12 8D E5 43 0F BA 40 14 03 32 7A CA
 6D C2 64 5D D0 BA A6 C2 C3 57 28 78 56 F6 8D 4B
 85 8F FF 9D 5A 38 9F 88 BE E3 C1 7A D2 A9 9A 6E
 B5 13 74 85 52 2A 87 2C 38 1A FF A3 94 EE 7A F0
 3C A2 69 25 88 19 44 C3 04 C6 85 9D CA 73 9F 6B
 74 69 CE 4F 64 E6 8C C5 20 81 CB 3F DD A0 95 08
 A6 4C 49 1F 0C 8A 4B 11 32 49 E9 DA 8E 48 99 15
 02 11 97 B2 05 ED 6E FA BF EC 0F 39 4C 09 48 BD
 16 75 84 72 1E 7D C4 CE 68 10 9F 72 55 73 6D F3
 CF 61 33 A5 E2 FB 4C 21 BA 36 BE D0 8E 94 1A BA
 93 E1 E1 1C 28 04 1E 47 D9 3D 6B AC 32 63 35 BB
 02 96 BB 93 E4 A3 39 3D E5 B5 F1 15 01 8A B8 38
 77 C1 FD 5C ED AF 36 E4 C6 84 0C BF CC 45 16 4F
 10 76 94 49 0A 8C 7F 58 82 9C 17 C2 32 1F 23 AF
 BD 26 5A AF 96 78 11 92 AE 04 8A 1D B9 65 0F 32
 EA F3 3A CD DD F5 AC CD 18 79 B1 82 BD 3D B5 95
 01 03 30 D4 8B A5 D1 00 92 59 7F 0B EB E6 04 43
 4C 01 69 3B 04 75 1F E2 8C F2 9D F2 D3 70 D5 A5
 F6 FA C5 8E 53 08 D4 C4 49 1D 57 D6 0F A0 F7 0E
 5E 00 7F 9E A5 19 CB CF FD 67 67 77 64 FD B8 75
 0C 41 C5 45 6E 9E C9 7E 4F D4 C7 FC 73 81 F3 F0
 5A 0E D6 67 CA 91 28 96 EE 16 98 E6 D1 9D 0E 9A
 9A 7E 6F C6 25 03 17 67 CF 92 7E 4B 09 4F 64 A9
 F6 08 79 64 17 07 51 03 D9 2B B2 C8 DC 7F 89 70
 7E 97 32 37 4A 69 7B E2 EA ED 5C A8 CB 68 95 B0
 C6 C6 4A 6F 0C F9 D3 06 19 4C CC C1 14 D5 E9 7E
 C9 C5 E1 28 F1 FA 61 27 2C 54 52 15 4E DD AB 09
 94 B3 D6 44 8E 3B 1C 8C B7 E2 DD 6E 90 C0 F0 EB
 C8 0D 3C 7E EF 18 96 0C 52 F5 C3 E4 D3 13 EB 32
 97 85 A5 3B AB 07 DB 6F B4 62 40 B9 C7 4A E4 E9
 5F DC 4C 24 55 57 12 5F 6A 73 3F 72 F2 D8 92 95
 71 B7 26 00 D3 E3 D1 4C 81 D9 D2 B0 5F 67 3D BD
 9E 1F 69 89 BD 4A C6 4C FD 2D 26 8F C1 C0 6D 95
 01 74 41 5E D3 02 A8 FF BF B7 A1 4D 7A DE 31 EB
 CA AB 83 73 FA 3B 27 93 A4 DA 78 34 75 50 CF 21
 70 DB 33 40 DA 2E 4E EE 36 85 51 F0 AD 2F 61 9B
 C5 1C E7 16 03 ED AB 65 5B 41 DB 24 1E DA 8C 8B
 DF 77 60 B2 4D D0 EC C4 99 C1 3F E1 D5 F6 0B 7F
 EA 99 57 7D E8 AA A6 86 65 7D 29 93 D2 F4 17 FA
 4E 88 3A 0F D9 64 8E 51 69 10 B2 8B 85 F6 95 BF
 EA 98 78 6A AB 94 3B A3 B2 13 2C A3 A0 F7 E4 60
 14 A4 BA F2 BC 5E 7F 0E 2B B6 6A BE C7 7B 37 10
 7E 81 4A 31 FC ED FF 13 75 65 73 60 EC 45 1F 02
 7A 00 E9 4F 0D AB AE 02 21 07 D8 9F 2B 8A 36 49
 F7 C8 6C EA 08 02 D2 C0 5A 53 97 A7 F7 9F 85 89
 B2 16 4F 09 5D FA E0 EC 6D 86 67 C4 1F B9 9A DA
 EE FE 24 91 32 13 33 89 4E 46 AE 66 95 E6 C8 89
 FE 71 5E B3 D2 48 32 60 40 F3 A5 3F 53 64 D0 35
 FF FA 5C E5 07 D8 A7 F0 DF 52 2F 14 34 16 8B E1
 FC 91 75 2E 2D 5D D9 21 D4 2D 7D 7D 63 D7 34 E2
 09 C2 5E EE 2E E8 60 56 5B DC 78 6F AD 43 6F 84
 44 A1 D5 86 E4 D9 4C BA C2 EC 3B AC C2 48 D4 C2
 9B 92 AA FE EE 7C 6A 22 6C CF 53 9B A6 E0 ED 28
 09 EA 23 43 A6 60 9C 93 66 27 33 B0 0F EC 78 18
 48 E2 7C 78 87 C5 73 A9 59 08 D8 53 E7 21 41 E6
 93 1B 34 74 0C B1 75 40 BD 99 20 67 CD F1 55 AB
 53 4A CF F4 96 26 20 01 4E 19 56 96 B6 13 54 81
 D4 E0 09 8A 61 2D 7C 57 3C F1 31 88 49 1E 59 D3
 38 B3 A6 16 02 4A FF 92 91 A7 4A E7 5A 12 28 8F
 A1 95 98 F7 B4 7E FF AE A6 DE 3A C1 22 26 44 3F
 F6 4D 0E 35 80 B1 55 27 66 E8 E9 55 04 A4 7D 60
 0F 70 B9 67 D1 B6 F1 40 BC 79 83 C5 80 DA FC A6
 07 0A 47 7C D5 DD 66 4A 63 38 45 3A F8 79 AA A8
 1C 68 13 AA 4C 9E 08 4E 0C 6C A2 BB 54 56 98 71
 B6 E3 45 52 6D BB 87 67 8A C5 CF D0 0E 5C EF 40
 CA 56 91 0F 6E E2 9E 2D F6 A1 BA 90 D6 8D 49 44
 16 DD C7 A3 2D F6 17 A3 3F A6 35 20 87 15 CE 17
 03 D8 5D 24 78 F9 29 3A 55 B9 68 59 B5 B1 3F F6
 7A C3 82 5A AD 7D 5B CA 92 C9 B5 08 35 C3 18 6D
 F8 82 5E B3 F8 16 26 ED 34 C3 53 70 A5 C7 32 02
 D1 6D 58 22 36 7C C4 34 E5 52 2B 94 1E A3 67 01
 70 00 10 A6 02 23 6F 23 25 50 65 E2 11 03 2C 34
 40 D4 7D D3 0D 39 D1 09 9A 70 4D 7C 1A 73 88 97
 25 13 F3 48 42 CF 3F 89 0C A6 23 CE 53 98 F2 13
 3D 8A 73 35 8D 1D E9 8A C4 22 44 51 D8 80 2F EA
 9E C4 D0 73 C7 FA 76 51 67 06 CD A9 E0 E5 46 D2
 2B 32 A5 D9 86 CC E3 2F A6 AC 21 0A 06 8C 91 2D
 1D FB 15 3F D1 17 82 4A 49 B2 8D 21 3C 5D 64 62
 98 87 CA 86 A4 C6 0F F7 7C E1 7F C3 91 F7 18 D3
 6B F8 2F 5C 42 B9 51 64 EF 09 3A D1 D3 64 6B DB
 73 AF 8D 11 BF C4 9C 0F B7 75 99 2D EF 99 58 93
 4A 1E C2 4E F5 A1 39 2D 0F 00 39 47 A2 46 8E 82
 C8 0A AC 47 43 89 F8 B2 FB DE CC 57 6D C5 5F 6D
 F5 C0 C6 60 61 58 0F 4A 70 B4 04 31 4F 4B BC AF
 71 88 2E 4C 3F 81 45 06 E4 38 4B 64 85 49 3C 75
 C7 E9 96 6B 9E 18 03 B9 EC C4 17 9E E7 48 33 B3
 A9 BC 1C DB E1 3E A4 11 82 25 AC 0D A4 A6 D7 58
 7C C0 06 CF 81 5E E7 2B 22 61 67 E6 C8 B5 FD 40
 1D 2E 37 92 6A C1 9C 6B F5 B1 FF CB 20 8E 02 83
 13 9E 71 12 18 95 95 E4 F7 91 76 39 2A 25 56 8E
 1B F3 C3 EB 3C CA C4 65 19 8C D6 B2 40 21 46 E2
[...]
 6C 38 00 14 39 E0 CB C8 46 FF 5F 8C C0 6C F3 B7
 CD A7 0A 17 A2 73 EB 6F AB FE A0 A2 38 4B 78 27
 88 A2 87 E5 26 48 DD 8A DA CD A1 29 3E B3 46 48
 CD 68 99 DD 7E F0 DA 97 ED 4B 1F EA 77 E0 7A 99
 4D 0A 31 10 36 61 30 5B 2F 8D 05 EE 4C 26 93 5B
 1F D9 E8 89 FC 17 46 EC C7 D2 91 BB D8 14 81 70
 87 96 F1 8B 8C 07 45 63 EE 53 2C 11 7C AF 1E 13
 D9 F6 BF 18 6F 4C 01 72 46 85 9B 9C 58 B5 8B 83
 06 D2 E7 8C AA B5 BA 9C 4D 89 06 D1 3D 1E 38 B9
 95 CD 3A 18 7E E7 05 4C DB 0A 0B 58 02 F0 4D B5
 C9 97 4E 91 81 82 4C 31 EA 3F 33 E7 9F D5 48 0E
 49 63 81 4D B8 52 A5 D6 73 94 64 0B 36 0F 53 BA
 74 9D AD B6 27 99 0C 4F 0F 49 2E 6A AB 7B 20 7F
 07 99 0F 91 1D BD 43 4B EE D9 E8 CD 03 7F D1 47
 40 96 BD 42 21 22 41 71 44 F5 FE 7E 36 42 14 76
 AF F2 BE AC 92 50 4B 24 71 EE 0B 9C 59 25 0A 1E
 81 67 5F 3F 9C EC 50 C8 EB 85 38 9F 18 FF 81 F0
 A7 92 E2 70 62 D4 86 73 08 E1 71 72 D5 6E A9 ED
 F6 72 C2 CC 92 9A EE 3E CF 8A 83 99 2E 05 45 B2
 B8 0A 96 95 58 DD 84 87 27 C3 3C 72 B7 10 1D 70
 59 6E 49 58 50 CE 34 12 69 38 C3 C2 CA 78 48 97
 0D 95 EC 3B 08 36 BB 08 55 0B 83 EB D8 D8 27 3B
 49 CB 9B 55 40 FE 20 A2 23 00 16 CD 1B F3 B9 DE
 B6 D9 07 77 63 35 33 3A 50 26 B9 78 52 25 07 39
 47 AB 8E C1 75 9D 4B E2 77 5C 8E 76 C0 06 3C B4
 2A 9B 95 70 98 D4 F0 DE 22 DC 6C E5 44 20 E0 07
 5B DB 7C 89 7C 6C 5F 8A 8A EF C1 1A F3 71 2D A6
 BF D0 F3 81 37 1E BA ED 44 53 31 A2 F1 76 CA 84
 8E 33 E7 B0 1A 15 94 A9 0D 33 2C 55 A7 88 80 C8
 BE 19 98 C7 F0 AE 6A 37 19 35 03 55 59 97 D2 8A
 29 A4 DC 64 3D 46 EB 26 E8 A6 08 F2 6D 6D 80 D1
 91 92 C3 21 D5 24 EE 66 B2 1C 32 D3 60 41 1B F3
 BA 38 BA 91 A6 52 A1 19 E6 FE 51 C9 CC 43 DF EF
 C8 45 56 F1 AC 78 4E EF 7E F6 D7 86 C6 CA F8 AC
 48 22 77 EA D9 48 CB A5 62 15 F1 28 70 E9 6F 6A
 F1 E1 63 44 5A 16 5A 2B BA F2 0D 89 13 0B A0 E7
 77 DF 4E 4D 91 02 93 68 02 BF 90 41 CF DD 61 C4
 40 BF 8C 15 AF D1 27 DC F7 72 33 86 B4 AD 79 EE
 72 B5 4F 1C 99 6C 53 B9 14 A6 0A 61 C9 F4 A0 3F
 59 4B D4 F9 B1 36 FC C1 C1 95 16 D7 D2 E5 78 B0
 94 96 DF 9E 4A 67 6A F7 F2 10 F5 37 49 9F 25 EE
 65 4F 96 2B 3C D2 2E 34 BD 86 D4 65 F0 60 D5 4F
 6B 20 BE CE B6 5E 16 A7 67 73 FD 24 98 4F 58 12
 EA 95 3F F1 01 1A 65 9B 09 3A A5 33 EB 41 A2 F3
 5D 34 F1 AD 86 1B 6E 5F 03 8D 05 4F E9 7E 60 6D
 48 01 DB CA 28 8B 46 02 02 76 AA DD 74 55 B0 5D
 1A 81 5D 14 5E ED 92 B8 D0 15 61 6D 6D 47 9A DE
 68 C3 E3 84 5F C4 97 FE 46 14 82 01 05 4D 39 24
 2F 8D A0 41 E4 F7 51 E5 06 83 12 5E 4F 51 64 59
 8C B7 B2 A1 43 44 F9 92 FB FD 0F CB 79 8D BA 00
 97 EE 1D C7 7A 30 FB 59 EA 37 9D A0 98 F3 F4 14
 63 99 DA BB 9B DF 25 56 91 95 2F 53 60 90 C8 60
 3D F9 70 30 B9 54 F2 0B 6E 1B 2F 0B 7E 5D B4 9A
 90 A8 8D 19 07 56 4A 26 2F 85 74 51 85 F8 56 C6
 3F D0 30 B2 EB 1B 77 45 BB 2B 58 B5 00 BF 4B 40
 ED FF 4B F8 51 C5 51 31 39 67 A7 4B AF ED EB 79
 F5 72 B4 06 F8 51 39 87 CD 29 8D 7B 4B 29 9A 5A
 0F D1 F2 6C 3D AE 36 18 13 24 A0 40 49 D4 AB FE
 46 D7 99 E4 CD 13 80 00 58 0F 86 BE C7 EB D7 38
 85 41 09 DF D0 43 E9 FF D4 EC BA 99 10 6A 6F 91
 E8 A0 48 43 85 B4 FB FD BB 6E 8C 29 63 54 7F B1
 73 9C 58 84 D7 2F 88 42 53 80 71 C4 68 5D 41 6A
 59 13 EC EC E1 5B 25 A7 B2 53 88 C9 EE 90 B7 9C
 C7 1B 08 00 3E 30 67 7C DD D2 77 15 0F 1C 6F 57
 9D 30 6D 36 27 21 C7 68 39 C1 9D 76 16 9C AE 15
 08 71 58 21 D4 D7 92 19 64 98 84 4E F3 55 F0 53
 48 DB F9 41 13 8D 7D 2C F9 C9 52 9C DE 76 0B CF
 5B 41 E4 34 AC 1C 11 B2 0F 53 C7 E7 59 63 3D 28
 CA 62 40 DD A4 CA 82 BB 9F 30 E4 06 20 2A D4 A0
 54 3D 2C DB 83 F4 55 75 BF EA E4 47 80 FF B6 B3
 D1 34 C8 75 D8 E6 34 34 C8 E9 53 38 94 21 C5 D7
 B2 2B 42 F6 CA 95 64 51 CD 0E AF 2D 5B A4 EE 85
 AD BF 5E F0 FB 15 10 B9 E9 80 E8 8B EB 5B F2 2E
 24 82 03 01 30 BF F1 0D 19 4F 6A 29 0A C0 1F 44
 B2 BE 9D 26 3F FB 0A 37 9E D1 96 4F 60 B7 C7 54
 8C 44 1A 2D 0F A6 4C C4 D0 6E 30 DA C9 EB B0 A2
 BA 4C C2 9C 98 D5 32 1A 28 84 22 D5 F1 E5 83 E6
 9B 58 7E F0 33 9C 5E 2A 6A C8 42 1A B3 80 5B 26
 D7 C7 47 9F 55 6B 7A 75 B6 62 E8 D8 4E F1 86 17
 62 10 FA 08 9B C4 40 6E A2 5F A5 DE 33 E2 9E 11
 2E 4F 9D 2E D3 39 E9 A6 59 17 40 51 5A 63 E6 3B
 E5 91 3C 0D E2 FA 9F 2D 63 B6 09 1D C3 4F 71 08
 1C E7 9A 68 B9 86 2C 2A F5 0C 9D B4 CB 45 BF 93
 01 89 CF 3D 53 63 11 50 6D 15 4A 48 41 B1 7D F9
 E9 D2 93 24 29 AA FE 44 D0 94 E7 62 7D 7F FB 44
 85 7E DC 07 79 FC 00 E1 46 5D 73 A2 3F 42 00 B8
 42 C0 FC 11 49 E9 14 32 C9 86 83 F7 02 7C 13 79
 38 C8 F7 92 72 96 6D 46 49 09 7B 6F 8D BA 7D 8B
 1D 5F 8F 02 DC 45 67 D4 74 EC FA 53 E6 12 0E B1
 C6 5C 72 C5 E2 AC B2 DB 75 6E D6 55 80 FE 7F B8
 25 74 8C 87 62 90 00 4D EE 33 04 F0 BA F1 4F 42
 F7 76 A9 C5 B1 04 7E CA BE EC 5E 7A 1A 60 FA 15
 F2 BA 3F F2 BB 08 92 E3 39 D8 56 9F 07 34 E9 90
 11 F0 8A 50 BC C6 BB 6D 92 AA B7 A4 18 6B F3 70
 9C 4F 1D 85 86 70 9E 84 FA FC C7 2B E4 D7 E7 77
 80 EF C7 03 CC B1 AB 98 A7 7D 47 5A 58 8F 69 2A
 C2 15 92 B4 42 5B F8 A3 64 85 C0 A7 E0 DB 82 8B
 96 AD 91 ED C8 1B DE 69 9C 11 49 7E 7A 11 22 A1
 D9 22 9A 42 7D 69 A4 96 8F 5B AF CE 5F 48 9B 24
 7E 59 5C 6F C3 43 BB 08 C5 78 BF 39 12 47 C7 05
 BF 6E B9 04 9B 97 E4 C5 15 FF FD 54 38 A2 A4 ED
 46 E6 40 57 24 10 E4 B4 2C D3 97 04 F9 DE 44 7E
 BC F8 17 E2 52 AC 07 E7 48 6A 98 34 39 B7 BA A6
 F8 84 78 05 42 FE 4A AD 5E 28 79 79 95 30 5F 79
 35 BB 32 6C C3 31 E3 61 91 42 BF 39 42 8B 10 90
 8A 92 FE 93 C0 23 78 05 BB F4 97 F3 3C 6C 5A 77
 08 AC ED 8B 78 1C 83 1F 0D A9 94 65 48 7B 41 33
 38 09 81 51 A9 52 A6 7A 35 D9 2C 00 48 32 05 38
 E6 0F D4 C3 BB 95 AD 8A 57 CE 2F 13 7B CE 47 23
 29 C5 A9 93 97 6A CF 72 A5 C4 4C E3 79 6B 42 23
 DA 5B FF D5 16 48 70 B6 46 CF 1C 98 E9 B6 F3 2B
 85 9E CA CC BA 92 F9 1D A7 4F 56 22 7D 25 BF 4E
 18 55 65 5A 4B E8 B6 68 79 78 8B 80 43 AB C2 D3
 75 F0 7C 08 18 FA D2 8E 58 D4 9B C0 AD 92 FA EE
 2F BB E3 DD 6B BD 1A B6 99 AD 5C 71 EE 2D 1F 1D
 84 00 DF 9C 77 F5 99 A0 96 FF BF 3D 24 B5 4E 4A
 E5 6F F5 BE DA 79 FC B9 25 41 EF EE 64 10 BF AC
 60 20 44 99 FE 93 A8 57 52 AB CC B7 BD 87 DB B6
 2A 49 61 2F A5 AE 51 30 75 39 A4 F8 DE 9D 62 E0
 BF DD C4 E9 A9 76 F6 D0 09 88 F0 2F B0 D9 EB 76
 ED AE F7 CA 6E 48 CE 7E EE 53 FA 46 3D 60 50 DA
 93 0F 0B 3D CD E7 A2 73 6B 32 A9 65 00 98 A8 CE
 CD 93 67 68 CF 41 49 72 E3 CD DB 97 B0 92 A4 5A
 D3 61 4F 37 FA A0 6A 74 A1 A0 71 15 D0 77 2A 34
 CD 97 1F 66 3D C2 11 72 81 38 BE 1B 2C 63 5B C0
 AF 4E C6 4F 02 AB 10 68 90 11 07 42 E5 96 00 C6
 49 1F 7C AC AB 50 90 18 B1 E9 C0 57 6C 69 10 42
 5B B5 9C 7F 1A 7B 03 D8 FB EA FA C9 8E 94 95 86
 4F 76 CC 3E 4D 4B F2 AD E8 FC F2 E3 48 1E 9F CF
 4B B4 A6 40 58 9D 0D 0E 7E D1 EC BF EC 69 2A D9
 C5 59 0B 84 E6 12 D6 D7 0B 46 7F 08 5F 33 85 1A
 70 09 96 9C 51 13 C4 6A 0E 59 EF 77 89 EA F8 60
 9F B8 45 F8 AE B3 70 A4 D9 03 3A 98 10 E8 D9 8E
 2B D9 22 D8 65 4C F9 AC 24 9B 5B B7 97 84 98 C6
 5A FA BF 43 F7 59 C7 FD A8 32 55 46 42 20 24 7F
 C9 10 78 6B 3A 01 2F F7 7C 4A 24 B0 33 2D C3 B4
 F5 56 E2 06 CB 88 CF 2C FD 7A 0A 46 EE CC AB EB
 08 81 65 89 37 ED CF ED 3B 1F 60 68 13 3E C5 9E
 24 56 4C 80 90 B0 E7 24 98 6A 4D C5 B9 E2 9F C7
 A3 E7 20 ED C8 D9 60 D0 6A 4E 44 32 5B F2 62 70
 C8 5A 4E F4 1F 2D B1 0A 5C 17 0F 21 BA D4 13 F2
 FB 21 6E BD 70 33 41 F3 DB 6F 9B 7D C9 D3 E9 5F
 1A BB 7A 74 4B 08 BB 61 25 F9 06 D3 34 E7 03 F4
 86 A6 E0 C5 6C CB 7A 23 BF 07 33 6B DE FC BD E5
 77 F3 F3 61 DA 9F 45 21 82 69 58 36 B7 46 1B C5
 F6 D8 C7 C7 FE 6A 98 91 9F 60 D8 94 E4 A0 45 2B
 6B 66 B0 E1 CC 84 28 A5 D3 E1 CF 69 C1 6D 2E 3A
 D2 41 31 25 D9 92 2F E5 D9 7F 0C C3 5A E6 1D F3
 64 9B 28 04 DF 78 F5 B2 12 70 0E AC A9 62 34 D1
 27 97 12 18 57 5E 54 AC 41 60 9D 76 BF E5 BB 2B
 4D 41 D3 1A C2 64 64 0D 3C 1D 26 70 39 40 38 CF
 2E DC 65 DD B3 79 86 52 00 EB 1D EE AC 1E D3 99
 B1 12 E9 61 4E AA AB 8A 74 39 A1 13 59 F9 EE E7
 D9 F5 BD 0F 73 78 73 8C 59 E9 C3 FD 08 D2 B1 E7
 0A 79 98 A6 13 E6 ED CA 59 F6 05 59 7E F9 95 1E
 11 6E 6C F2 55 44 FD 91 6C 5F EC 38 96 BA BF 30
 43 87 9B 25 56 7F 4C 46 12 2E 3A F3 5C 38 FC F5
 00 0C A7 46 43 70 78 EF 65 F7 16 A1 ED 9D A4 66
 0D 51 C2 2C C7 44 05 F8 73 06 C8 18 A7 17 D1 94
 BD 37 AD EA D3 0B 39 24 06 A1 16 6A 94 09 F9 D0
 F4 0A FE 08 0B 71 F4 8A BD 16 89 95 D3 02 A6 41
 B8 08 74 11 93 A0 74 79 79 34 1C 77 47 2D 39 06
 69 DF 54 A2 4C 88 3D CB 6D 1D FC A0 8F 55 CE C2
 E8 4B DC 35 AB B6 AD 17 FC D1 55 28 31 46 7C 37
 76 AC 6A 85 A7 06 F4 44 D2 39 93 4D B3 05 93 A8
 3C B2 A2 F3 A6 5E 79 E5 2B 6D 52 E1 37 E8 20 BB
 C3 98 09 DB 09 D2 44 5C DB B1 64 EC 4B 69 0B BC
 CD F6 17 C9 A8 98 7C A1 69 7F 23 A8 9F 92 1B 21
 45 46 5F B2 28 68 A1 DD 81 50 48 5B 13 A6 4B B0
 3B 23 D8 65 B5 13 F4 5A 7B 5E 13 4A 1E 3F B0 65
 5B E9 81 07 C5 F4 9D 8B 6E EC EF 7C 31 C9 8A BB
 50 D6 CB 1E DF E8 E8 E7 CA A2 70 4D 93 78 64 A0
 7A 4E F1 5C 0F 27 67 A5 A9 1A 7A 2C E3 11 C5 8B
 EF D5 EC C2 29 4D 43 15 5A 58 77 44 91 93 2F 72
 A3 84 EB 4D FF 60 AB 6C 41 1F 84 09 22 2A DE 5B
 53 04 82 72 19 0F A3 AC 3A 8E 27 50 9B 72 B5 2F
 90 16 79 54 07 B4 BB 3F 67 AA 99 07 14 BD AE A0
 9F 5E DB 6F A4 3C 3C 5F A9 FD CD 68 C6 4B 2C 46
 37 82 0C 4C 48 11 82 97 73 6A 71 61 B4 99 2B 86
 93 28 14 A1 20 39 0C B0 BA 59 F2 60 4F BE 1B 6C
 E5 54 49 96 55 1D E3 71 1F FD 1E 0E B8 1C 95 A7
 DA 25 4D 56 9B E1 CD BB 21 E9 19 16 14 77 24 C3
 DB DE 95 63 3D EB 68 B5 4F 5A 4D 39 44 2F 7D 46
 32 6D F0 34 09 7C C9 D7 E2 09 44 6B C3 BD 29 95
 15 FB CF 4E 2C 21 30 79 6E A7 C5 03 C4 B8 80 25
 DD 4A D1 25 F3 36 8B AE FC 95 8F 06 5C 92 D1 9D
 67 D1 DC 75 66 7D 93 73 AC 85 EB 8E 62 DA EB 8F
 A9 02 2E 42 A0 FD D4 79 77 81 6B 60 E9 A5 E0 41
 81 3C 90 7A CF AF EC 13 D0 AF 82 F8 DF 90 01 4B
 01 42 28 38 6F AB 4B F1 71 BC 51 2C 2F C7 17 B7
 34 78 0C 67 EF FF 93 4E A5 C6 A9 33 D0 48 E0 59
 AF 28 01 69 42 B9 EE 7D 38 2A A1 41 37 67 14 8C
 3B DF EE AC B9 DC 3C 32 ED 3F 88 97 2A B3 B9 F0
 B8 3F CA A6 94 02 CF 4B C0 F8 A6 12 D5 2C 41 B1
 9F 28 91 9D 3E 79 92 77 A7 F3 2B 80 13 3B 16 39
 6E 55 76 16 70 64 FC 88 AB A7 83 D7 CF AE D7 76
 9C E2 2E 8A 7C FA 98 58 FE E8 2E 75 68 CD 9C 3F
 70 F3 E6 3A 60 31 82 A0 27 F3 58 C5 73 58 5B B5
 CF 90 23 C5 51 7F A0 2C ED 6A 82 BB 81 89 10 DF
 BC 7D 31 9B 89 5E A0 7E 9D A3 BA DC 14 3A 15 F7
 F7 22 B6 B8 67 77 48 34 AE 39 6B 09 DD FC 45 EC
 65 4F D5 86 14 05 3D 75 C8 85 EB B7 E4 1C 08 B9
 B0 A9 C8 4C E1 0C C4 45 B5 EA 02 B3 C8 34 31 73
 23 72 09 79 1E FC 75 63 06 E3 B6 03 7C 1B 24 64
 DB 14 BC 40 39 AD 10 09 FB E6 C7 CB 97 B6 99 76
 72 6C 6E F1 41 2A 5E B2 DF 52 F1 5F 72 3A B7 3E
 0D 71 66 F5 4D E5 A9 C3 42 47 4C 9A 8F 0D 51 4D
 70 95 29 3E E4 A1 63 E5 49 56 69 62 4B 3C A4 E0
 08 5A 44 48 EC 18 B9 74 93 A4 CF 40 F7 48 F0 0C
 07 4B 42 EB B6 82 A4 2E F3 6D 2E 8F AF 02 E3 A7
 1F 87 4D 8F 09 80 40 94 17 49 96 EA 31 46 A9 CE
 07 B1 7D AC 14 D8 A3 7B 85 A4 3F D6 2B A6 61 3C
 B7 AC DF D5 77 A9 CB 11 8C 5F 8A 6D B5 C4 C5 1F
 35 F0 2A 76 D4 C0 53 07 3A 4A 92 4C 79 79 36 DE
 A4 D9 21 CC B7 78 4D 53 11 F3 0C B2 99 F8 2C D9
 FC 80 9D CA FE 4A FE 6E E1 4C 98 15 DE 36 4D E9
 D4 B1 B6 19 21 EB 1F 6E 75 E6 13 D1 29 A2 C2 BD
 43 09 CF 01 7B D7 7A 1A F4 66 E6 D8 FA 02 F1 0E
 E2 93 34 B0 7B DC 32 EE 39 E4 D1 DD 69 FD 6B 2A
 80 C9 64 97 0C 3F 92 F1 03 82 AB 2A 67 41 15 99
 7D C8 B0 D9 4D CF BE 03 1F F6 C1 EA 37 CA D1 12
 70 4A 5D 39 0D 85 B3 EE E5 EA 63 3E 72 82 ED 20
 A6 5E 2F 79 F1 B6 46 4D D3 BF 45 E9 A1 E9 3F CB
 35 5E AF 85 2F DF 2D 5A 64 0F 16 41 BA D6 45 6A
 F6 17 CE B0 37 E2 06 6A 71 7B 8A 65 96 99 06 7C
 67 CB DA 84 72 25 A3 DF 64 C5 FE C1 31 36 3D 3A
 28 16 19 9E 67 7F FF 95 23 26 D4 2B B5 C1 D7 55
 E9 82 4A DD D5 6A 0C C5 9A F8 E8 C8 5D A7 5A 85
 85 A6 20 17 B9 C5 66 0E CA 20 C5 8D 67 72 03 D1
 FA CC D4 E3 9D 86 45 64 B8 1E 96 6A 73 0C 95 A8
 FC 9C 5F 7E EB 4F C8 95 60 D0 BC 0A EF 03 02 25
 B9 7F 02 09 74 7A C4 2C 9E 3D 9F 1A 0E 1F AA 68
 56 13 BA 49 4B FB BE 50 E7 E3 ED EF C8 6C 4B 54
 9F 6B 0C 5D 22 B1 33 EF 72 A1 71 66 FB 87 8B 3C
 1F E1 19 2B 9A CC A2 1D AA 88 5C 99 D8 E9 05 C4
 1F 90 E0 DA 12 8C 1A 06 6D A4 21 32 61 D1 D4 92
 C9 E3 2F 44 49 27 F4 63 D6 6C 40 B9 F5 06 75 B3
 6F E2 D8 8D A3 58 57 49 73 FF 4C 8A 15 D3 90 43
 FB 11 1B 90 0C AB 20 C2 14 DC 64 75 31 A9 B2 C1
 DA 11 E0 9F 20 BD 8D E6 B0 8E 85 E2 37 6A 13 A7
 B1 82 44 E7 13 FE AB 06 DC 9E 82 EE 03 2D E4 66
 4F 7D ED DA 24 4C F1 B3 BF 42 12 AD 87 39 1D CB
 89 1E F8 F7 4F 6D 29 2F E1 4F C0 4B 07 4C 83 BB
 03 3E 4B 93 17 A0 E7 A9 D4 85 10 90 14 DA 0F 11
 70 B4 08 97 BD 67 F6 60 06 D2 1D 04 80 F3 A8 65
 1E 4D 15 F9 27 51 B9 5C 7B 33 01 DE C8 25 49 6D
 9C 2E D1 0D BE A4 22 13 2B E6 D3 3D E9 99 BC 3D
 6D 59 07 95 AB A0 5B 52 CC F2 2C 9F AF CD 39 E1
 FE DC 42 18 DF A4 14 1E 03 08 46 D3 15 1F 65 75
 22 43 5A 3B 3A 97 BA 3F 0B 2A EA 0D 64 9F 62 C0
 6C C9 B7 DF 7A A7 77 66 F2 7A A9 4A BD E8 74 0E
 67 28 33 3B 7A F5 87 AA B7 FC B6 EB 07 D6 CB 64
 D0 47 2D 56 7E 03 F9 AE F3 55 3D 26 D2 01 81 99
 C0 21 41 3D 4E C8 D4 59 94 3E FE DD 50 AF CA 66
 8F FA 55 6F D2 A0 01 B9 DF 02 9C BA D5 0B C0 E8
 FE E1 9A DB 6E 99 B3 74 E2 4E 9B 39 DA 62 24 53
 93 E9 CD 3A 56 D7 F6 D9 A6 5A D1 05 B3 62 E5 ED
 CD E2 08 3B 6B DC 57 E4 EC 71 44 3E EF 07 15 F1
 37 2C 0E AE E2 6D 27 45 71 87 AB 3C 3E EC 3F 90
 94 5E 83 E1 93 A4 57 DD 23 51 DA AB A0 F2 1C 2F
 5A 88 21 E7 80 F9 7D 1C 94 BA 34 C9 5A 8A 88 4A
 E6 6E 52 0E 92 81 1F 9A 4C 71 49 C5 76 5D B9 48
 95 83 B0 9C A9 14 A7 F8 51 39 FC A7 74 EF 7B E2
 8C D2 29 0D C3 E9 28 DC BB D1 10 10 D2 39 7C D5
 B2 C5 28 0F 3A 84 28 4A B1 91 D8 3F D2 08 7F F8
 B7 EA 6F C1 89 3C AE ED 3F E6 66 9A 65 90 08 71
 91 DA 4F 01 46 48 8E 79 62 00 73 4B B1 51 12 79
 F3 8D 87 8A 33 BF 28 CF 6C D7 B0 D7 F1 DF E6 EF
 1F 66 FF F2 D8 16 AE 90 DD 66 26 F9 7D DE AA 59
 67 45 17 46 2D E4 6F 1E 41 29 C3 69 AA 44 0A CC
 11 9D FE 2D CE 49 13 9A 2C 12 03 2D 9F D8 E2 88
 EF 43 52 93 50 1E B9 51 58 01 EB E1 18 DA 9C BB
 AB EF 33 71 5A 09 3D B6 39 4C B7 8A B5 6C F3 C9
 B3 41 D5 81 B8 EC 56 12 ED EF 58 F3 8A 5C 3D 4C
 F0 39 7D 93 ED 7D 4D F2 60 DC 92 36 13 B4 95 41
 E4 F3 09 E9 41 95 3E 85 71 62 AE AA 91 7F 4F F1
 0C 88 2A AE 44 FD 37 83 B2 D3 C9 65 32 7D 0A 69
 9A CC 83 69 33 89 92 19 E6 31 A8 99 19 A9 9B F4
 54 B4 4A 1E 37 2C C0 7F 58 ED E7 07 2C 15 EB 90
 CE BE 64 E5 40 4E 32 71 ED 22 0C 67 02 CF 49 3A
 2B 3E 25 9A 63 E1 7F FF 72 A4 F9 EC DA 31 88 E4
 1C 0D D9 AB A5 8C 35 F2 A2 68 89 E2 A5 9F CF F7
 79 EF 9C 5E 23 9C 29 D1 89 39 39 3E 5D 54 9F DF
 5E C7 D8 AD 04 7A 9E 85 FB FF B8 F2 15 80 58 2C
 E1 E0 CF 24 F2 33 1C EB DD 36 FC 23 41 98 6C 39
 9E 07 F0 F9 98 8A 0A 35 38 6F B2 CA 7C D2 0D 8D
 45 6B 6B 93 A2 2F 00 75 C9 6D 1D CC 3C BB 13 FF
 55 A0 81 30 B9 D7 D0 5D 7F 05 DC 1A 48 85 9E 2F
 0D 61 C1 BF 2B 5C 9D B3 0E C3 B6 4E 2A 68 28 C2
 B7 2C 18 A5 03 1C E4 AA 53 7C D9 B4 5F 0F D5 E0
 95 D0 08 71 92 4E EE 03 EB A2 7D 74 1E 14 FA F4
 A8 FC 37 0D 65 85 3C F9 2D 31 C6 AB A5 9C 02 30
 F6 1F BE 6F D3 AD 2B 10 C3 16 4F AF DA 68 98 42
 F0 F8 CA 97 3C F9 5D DB 06 16 1F D5 EE 5A 95 08
 2E F2 F2 E0 BE C0 31 74 A3 73 69 D8 24 A9 E6 57
 5D D5 6F A7 B4 96 42 7F DD 4E 91 68 91 99 12 C9
 AA 35 DA 5A C6 30 A6 39 99 C4 45 2A FC 28 5A BA
 DB 1B 37 AE EA EA 70 49 31 70 32 D4 32 34 16 7C
 76 2D F0 EE 3D 37 C5 ED 32 52 7E 3B BA 26 94 9E
 3B D6 D6 65 C6 D4 78 D4 31 0A 0F D8 77 A2 94 DB
 6E 33 7D 3F 90 68 AB C8 8E 7C 54 CD 02 9A 7B 24
 8D 92 24 B4 58 69 02 15 BA 7C E8 8F D4 FE 4E 84
 F2 6F 14 6F 76 F4 E5 D2 03 47 1D BA AE 9D 34 9E
 39 09 F2 F1 9A 4D 72 0D 4F 5D E3 09 68 D1 E6 46
 2E ED 50 EF 72 13 06 54 60 EB DE 7B 56 18 41 8B
 12 42 5F 89 C4 9C 0D E6 AD EF 25 98 4E 57 6E F4
 40 5F F4 89 53 2A 39 5C 44 F2 93 D8 AE F7 FF 94
 91 0A FB B3 DB 77 6B 1C D5 0A 2C 69 5D 65 26 35
 A2 D7 C9 54 87 DD E9 F7 AD 20 E6 64 ED 4C 76 CE
 9C 59 94 46 15 80 CD 3A 69 A3 06 1A 59 E3 95 9E
 A6 83 75 50 E3 B0 EB 0E B2 88 13 83 37 9E BB 5C
 B4 1A 78 FC 11 07 DC 89 0C 05 B2 F5 CF 2F AF 2B
 80 1B A1 DA 41 4C D7 31 A5 CA 3B A7 03 87 2D C8
 E9 F1 6A 0C 27 CB 97 08 7F 1E F0 73 83 E8 33 C1
 B2 34 BD C2 AC 21 77 D4 E8 DC B4 D7 F0 70 70 D3
 E5 69 11 ED 43 79 38 CE 7A 55 36 8A 6A CE 8F 8D
 F7 CC D1 21 89 67 37 10 F1 EA 1B C7 14 62 DA B4
 F9 E3 29 24 74 35 27 AA 4D 6D 2D 24 A7 54 2B 08
 9F 63 40 05 EE 08 03 AA 13 2C 49 96 1C 1C 63 92
 06 EC AF B3 5B C4 9D 9A DA 16 F5 38 39 E3 27 07
 75 85 AC 9F EA 6A 64 B0 05 8F B4 3B F4 D8 14 CC
 31 5A 5D 71 AF C3 6B 10 F0 CF 65 64 50 75 E6 A4
 04 C0 D7 DB 42 E4 F7 39 93 B8 DD 05 50 DE 9F 0A
 28 BF 27 35 2B 82 3C 79 61 73 40 79 6F C2 A9 7D
 EE 18 A4 9A A9 C2 3D E1 C9 BD 18 37 A6 90 FF 08
 ED 14 49 BD A6 3D 6B DA FE 21 81 D2 A0 57 EC DB
 14 7C 2D E3 73 48 78 8B AC 01 FF E0 BF 5C F9 F8
 02 2A 55 D5 02 39 E6 05 09 8E 60 EB 82 6A E6 94
 C2 2F 92 2B 21 03 65 96 0E 22 59 0D FC 98 09 64
 7F A2 AE BD 33 B8 46 90 73 80 5E 46 22 F2 CB C2
 85 E6 B6 5C B0 20 04 36 37 B9 09 E5 07 28 4F 1E
 C2 24 48 A6 95 DF 9D D1 0D FB CC EC DA 36 7E 4D
 5F 03 CB 26 44 7C 12 9F 4E 18 CA 8C 0F 97 24 65
 4F DD EA 34 BF BB FC 24 06 7E 11 5D 97 BB F8 9F
 81 77 14 09 5D 2E 68 49 5E FE 0A CE A1 BF 7F 5F
 9A 02 9B B5 D1 64 5D 6C 06 36 B0 8B BE B4 44 87
 75 45 B5 33 BF 49 4D B0 5E 14 E3 BC 63 4D 74 32
 D2 2A A9 DE 5E 61 0F 07 4B 06 67 89 5F E2 C3 AC
 59 9D 57 F7 7B A1 A6 54 BB 9D 93 81 CE 96 35 7D
 27 F1 E6 40 C6 53 BD E5 83 68 83 63 FF C6 53 4E
 54 61 FB 37 D2 03 64 BB 8A 20 55 2E 28 AE 0F DB
 82 97 97 2B 33 3F F8 E3 A7 14 76 11 A0 B7 44 49
 60 14 CD F5 FA F4 06 4F 51 79 7F E0 49 95 0C A6
 D3 41 DE 25 66 2A C9 50 02 DC E5 C2 0B C0 7F 0A
 41 DE 09 1E 9D 8E 4F FC 5F 8A CA 92 70 17 C0 E8
 64 8A 85 02 6B 25 D6 E9 E2 9A 72 F4 E3 D7 93 EC
 89 57 35 C1 5F A4 F4 CE 75 50 33 29 C3 7B 69 E5
 83 19 9C 40 36 16 1D 18 DD E9 50 03 2B AF 9A BF
 14 F5 4E C3 7B 5F EB 66 C4 D5 70 7F A1 CD 3A 55
 93 79 76 BF B4 C4 6E BE 27 96 7C B1 78 81 A4 67
 C3 16 50 42 5F 5B 3F 6E D6 B8 C4 80 88 CE 8E 71
 10 A0 2E 25 98 CA 41 C0 16 44 47 63 BE CF E3 8D
 F9 6A C8 D6 0C 77 08 3E 91 3D 70 9E B9 E1 D8 1B
 B9 93 7F 29 22 78 51 FC 13 F1 A9 29 87 7D 58 2F
 44 4A DC 72 66 C1 41 48 70 6C A6 D6 F8 C6 72 A1
 49 06 4F 25 7A 56 02 C7 6A B0 27 FA C2 0F 63 C0
 F1 15 54 04 6F 21 4D DA B5 16 5B B6 8D 64 E8 B8
 8F E8 5F C0 DA 31 78 34 FB A3 BB 70 40 E0 67 75
 A1 AF 67 98 85 3E 0C A3 5F 54 3E CF A2 BE F6 0D
 B9 C4 46 BB 14 71 62 2B 56 50 51 B2 CD FE 78 A4
 33 B7 81 90 76 94 F9 83 63 24 CD D3 92 D4 95 4A
 9B 6E 13 D1 68 79 71 48 8A E7 97 24 B7 A8 5B 31
 0E 0C 02 9F C1 8C CF 1D 27 F5 0B 36 71 95 23 42
 97 9E 8B F9 AF CE 29 CB FC 15 56 44 D0 0E 1B 78
 9B BF 8E B3 7B 52 9B 28 E7 B4 E2 55 C2 B5 01 44
 27 E3 5A 53 E9 D5 0B 72 14 EE 03 B5 42 0F BE 3E
 09 3A 79 9C 51 5F 8C 5E 2B AC 91 6D 54 58 7D 35
 3C 04 84 1F 70 F6 B6 90 EC E4 C7 73 95 91 4B A5
 F2 7F A3 07 23 32 C8 41 3C 62 45 77 5F F6 B3 99
 59 92 A8 93 33 BC 36 EA D5 00 8F D0 69 DF 63 21
 AB AF 1D 68 9E F8 2F 30 2C 97 07 41 23 72 9F 22
 A0 81 62 92 D6 D1 17 E7 89 5C CA 21 96 49 CD 9D
 4A BD 71 F1 F7 2C 91 C4 F1 F1 F8 D9 DD A8 23 BD
 24 2B 38 4C 2F 3A 4D 4C 34 5B 10 4E AB 0E 24 35
 C0 92 1E 9B 46 D6 AC 0F 84 4E 44 D7 DF 80 75 19
 31 D7 A4 B2 15 D0 DE 75 72 BE EA 1E 7F 8C AF 32
 13 7A 73 AD 72 CA DE 5F 87 CB 64 45 FB A8 23 7B
 28 B2 C9 3D D2 F4 C9 93 E7 77 FE 8B 26 59 0F 1E
 0A F8 17 CC D9 6B E6 4F 89 81 2F 6C 08 B3 F2 F4
 90 37 48 B3 01 40 06 DF 28 0C 76 F9 57 E1 7B 75
 43 F4 75 58 1E 53 15 C7 A8 4C 0A 0F 26 A6 3D 4C
 C3 AD C9 BB 6D 2C A9 DB 5E AB A3 87 9E 75 3B 69
 64 04 B6 09 3A BB 12 0E BB 96 E8 EE A6 22 D1 9F
 CA 81 DF 36 29 B7 8F 60 41 72 96 AA E4 FC 40 3D
 EA F8 89 3C BF 83 62 07 15 D3 BF E9 0A 42 27 D9
 F6 DD AA EB F3 7C 61 C2 C0 1C E5 38 01 89 81 25
 BD 9D 0F 94 71 98 99 C9 7B 3D EA 84 F9 82 07 DD
 5D 84 BA A2 98 F4 76 C7 A3 7E 86 44 C3 EE 9D D3
 D7 15 1A 35 B1 49 74 77 22 21 CF 80 1D 7E 13 AA
 24 FD CA 00 D6 E8 D0 78 7C FA 00 5C E0 A5 24 AE
 A7 6C DF 87 F0 9C F2 5C 43 CC 8D 34 08 EF E5 92
 30 0C 63 EB 98 18 08 0B 71 D3 1B EA 5F E6 01 51
 1E 67 B9 87 07 9D AE 4A E7 82 D7 03 7A D4 C6 2C
 5A B2 23 A4 6E 8F 39 37 A2 20 13 D7 38 1C 3C 06
 F7 07 DF C9 47 25 76 E7 1C CA 6B 6D 29 53 3C DB
 7E 74 1A 2F 27 68 B6 F3 84 99 46 3F 19 A3 16 F0
 5B D5 BF C4 04 B8 4B 83 B4 B3 BE 3A 50 A8 2D D1
 E0 C2 23 A6 CA 37 59 24 D8 38 81 BF 9F 12 89 7B
 C5 A2 31 86 E2 54 83 65 7D 34 AD 74 81 0B 9F 52
 1B 45 B9 CC 51 EB BB C9 37 28 0C AC 30 50 A3 22
 3E 1A 09 76 B1 9B 3D E6 A0 30 20 E0 9F 31 55 2C
 91 57 DA 65 93 E3 CD 3C DC 84 0F C4 B4 63 C0 0D
 67 8E 7A FF 9F 45 13 A1 82 A6 16 6F 62 71 FF 89
 78 8E 82 0C D3 8B B5 52 E3 CC 5C 67 6B EC 83 40
 3C 9D E6 11 D8 AE 09 04 3B 17 A0 D9 46 AF CD 9C
 94 BF E1 00 BD 33 47 E4 4E 2E 25 77 2D D8 3F 1E
 80 43 5E 43 5D BB 69 41 96 1A 1E A6 53 F8 52 66
* End 3715656197 774341406