* LTspice Encrypted File
* 
* This encrypted file has been supplied by a 3rd
* party vendor that does not wish to publicize
* the technology used to implement this library.
* 
* Permission is granted to use this file for
* simulations but not to reverse engineer its
* contents.
* 
* Begin:
 23 72 C2 40 7D 57 CC CA 8C E2 EC 46 69 51 1A 96
 46 39 2C 9D 59 C0 45 43 BF 65 9E D8 F3 C8 5F 10
 1C D8 07 F1 D7 B4 C4 21 0E CF 12 90 77 D0 4E ED
 18 6C A5 0C 3D DF 49 40 38 7E 2E 95 F6 36 53 8B
 DF A4 B1 69 50 09 A8 E5 0D 35 63 3A C2 AD F4 83
 EC 23 C9 6F 87 2B 93 6F BA 93 35 2E 4F AE FD DA
 8B 6A F3 F9 E7 43 6C 7B 95 49 62 46 48 65 BB BD
 29 A1 A5 E6 A8 02 8D 34 CB 2E 6E B9 62 8F B7 50
 4A 8F 94 64 D7 99 96 B9 91 4D A5 F9 16 CD 59 47
 1B D3 3C D4 E0 5C 1E 62 00 0C 9E 1C E8 97 AE 8D
 5B 1E 65 AC 91 96 26 0A 84 FC 2F FA DE D3 28 D8
 F5 3C AF AE 1C E9 19 E7 D1 C2 BA 55 38 58 08 CF
 AE 40 26 3C B6 B5 B5 EB DE 28 AC F3 E6 AE CB 9E
 E5 71 D2 8B 30 33 6B 33 53 2C 3B CE 1B 68 1D BD
 CB 55 0F CA 35 B4 47 E2 C6 81 ED 92 AA 66 B3 DB
 C7 50 48 CC D4 97 F0 2E 8B 58 41 79 E3 2A A0 79
 98 D9 53 6D 99 FC BC B3 93 EE 8B A5 AD 5F B9 DD
 28 B6 3D 7E 25 BA 24 30 27 D3 CA 8C 63 81 9F E7
 32 2F 6D 06 13 49 BF 82 C6 8D B1 B0 DB AE 45 53
 31 D1 FB 01 AA EF A1 B0 78 53 B2 66 18 EF AF DA
 86 F0 FB 15 BD 0D E3 D5 CC 00 33 5F 56 8D 70 30
 F6 BD 6A 8A 9C 8C 5C 70 98 7A 8E 10 D4 2C 19 28
 4B 25 9F FA 16 FE E8 92 CE 6E 97 6B 2F F7 BC E1
 65 0B 93 86 B9 84 66 14 96 98 D1 03 FE 80 98 B6
 9E B6 53 1F 11 9D E0 15 80 2A 9F 56 9C E8 7A FA
 93 B1 36 03 F2 EE D9 96 78 C9 4E F5 BE B5 4B 72
 02 E9 42 33 73 E5 FD 23 14 1B 6E 10 A5 6B 89 AF
 54 53 93 ED 38 3F F3 F1 3C 3D DD 0E B4 1C D8 F3
 3A D1 F7 D9 FF 20 AE A8 85 F8 B0 D8 DD 16 77 4E
 B1 19 24 28 FD 3C D9 F0 92 84 8C A2 7F E4 5D 81
 1B 20 D6 17 30 99 84 D5 4A F0 DB 76 FB 97 02 AA
 6A 60 A9 52 F9 09 B4 FC 22 56 28 F4 A0 99 E9 06
 8A 6F 8B 25 22 71 25 24 AE 1C 69 22 95 2B AD 86
 BE DB 0B 18 0A A8 B5 7A 73 58 60 B4 95 D2 20 9B
 A8 D1 C6 88 D1 BF C9 7E C5 8F F1 0C EC 7E 87 C7
 98 5B CC AD DB E0 10 42 B4 70 44 2B 61 F1 F2 31
 68 54 97 29 55 4A BD 54 9C E7 A4 BB C0 64 89 C0
 E7 30 D5 0F 59 D0 89 58 CB DF 48 B9 65 AB 16 3F
 97 B3 9A C7 57 E0 00 E4 BA AF 51 4E E7 93 D5 7B
 D0 4E EB AE 93 99 2D 36 13 4F 04 60 E8 F4 1A 5E
 91 12 47 4C CA FD 02 31 3E 36 20 4D 47 25 9B E4
 35 C7 3D 79 5F 7A 18 45 3B F1 02 8C E4 88 66 43
 E5 D5 C0 8D 24 BA DD 69 D5 F0 97 B7 BF 5F F4 03
 65 D8 F9 19 DE 6B FE A4 80 FB 08 B0 97 10 02 65
 50 CD 1A 68 5A F3 94 EE 24 7A 51 3E CC 14 70 93
 DC F8 36 BE 02 1D 1D 4C 9A 08 88 11 97 8A 9A DC
 25 E1 4A CA 5C 1C CC 36 BA 91 ED AD 70 6A 34 BE
 05 91 1F B1 7E 99 E7 42 C5 6F 5D 9D 07 E6 24 1C
 8C CE B7 67 A3 4D 70 5C F1 FC 74 BB D5 B7 FF A7
 04 DC 6C 37 0E 1A 1E 29 8D 31 64 24 3C 82 94 BD
 77 39 F6 3C 62 26 71 69 0A ED 30 02 8C 45 89 8C
 6E 4D 20 82 62 D8 F2 00 98 4C 30 29 FF 57 3F AB
 9B 6D B5 72 A2 F4 B1 9E D7 DC 0B 10 D4 DB E8 E5
 B5 CC 50 FB 20 35 CA 4B 96 A4 D9 67 56 3E 57 D7
 8D 49 B6 E5 13 4C CF 39 9C 77 CB E3 B4 F4 2F 92
 0F 8B ED 9B 0B 75 F4 FC 05 FF 3E 35 FB 22 15 66
 A9 06 03 C6 74 07 11 71 69 A0 CC 68 BC 7C 6F 58
 41 F9 29 23 E5 63 87 1E C0 31 B6 3F 15 D6 DD 76
 D6 1D 2A D7 3F AD 44 BC A2 B9 D4 79 04 11 C4 0C
 7B A4 35 6B 1D 64 E5 E1 80 8E BF 70 55 84 DD 82
 A3 61 C6 DD 68 4B 6C 06 3D EF 7C BF 98 DD 46 39
 BF 94 39 B5 BB 15 5B 14 04 20 E0 01 EF A5 99 0B
 7F CD 0C C5 43 72 FD 74 F2 7C 36 C1 CF 15 8F B0
 1A 7B 52 CC FF B5 42 85 4C 2A 44 4D 60 CA 60 E5
 CC 1A 48 7D 5A E1 07 16 02 FA 05 C9 67 20 8C 29
 E8 AD BE 56 FA 07 15 1A 44 B9 0C AC B8 5F 06 13
 4E 79 CF 1C 3E E8 30 D7 D5 35 BD 5D 3F 99 AC C0
 43 52 ED ED D8 2C 4E DB 4F E2 36 DF 12 A7 5F F2
 C5 7B CE 35 61 6F CC 97 63 83 19 9F A8 5A 10 09
 50 7A BF E9 8A 3C 69 A7 5E 85 11 FE 98 CA 88 24
 DE B7 78 9B 46 DC DA 23 4E 3F BE BA F3 F4 2F EA
 A1 4E F9 5C 6D 51 8B 0E 09 23 50 B7 6E 6A 70 78
 92 95 24 E7 A6 3B A3 9F 3B FB 11 3B B1 83 E1 25
 48 CD 2A BE DC E9 0E CC C2 A6 35 3B AE 6C 79 BF
 EC 97 BD 29 DB 09 3D 0E 99 6B DE CC 44 7E A7 20
 DC E1 6A 2E 62 7F A1 F1 46 DF AD 6F D6 24 28 EF
 90 0D ED D1 33 E3 90 D9 A4 A5 F6 A3 D6 FB DE 5A
 5A 58 1D 17 51 03 BB D6 EE 30 D2 54 2B 0A 52 83
 1A B0 D3 A9 01 46 E3 71 D7 43 58 AB D1 8D 4F 12
 94 40 92 7C E4 7B 86 1C E8 06 C9 8C 08 8F AA 24
 AC 2A 9D 7C F3 02 BA 97 29 04 08 66 EC 37 0E 8E
 64 94 2D 9C 5D BF FA F4 3B DA 4E 44 07 6A 6D 5F
 7E C8 29 8C 77 E2 34 A9 1D D1 1F 73 60 12 05 36
 67 59 99 02 09 F5 FD DF B5 A6 B0 3F 4C 3A 2F 91
 17 B8 29 92 4A FF E9 0E 0F 77 EF 45 19 0F B2 E4
 DA 28 23 72 A8 F3 66 57 C2 0C 64 46 3A E9 17 6B
 42 7B D1 4F 40 70 39 4C 55 47 38 39 9A 82 83 4B
 5E B1 25 B0 48 F3 23 46 66 F0 66 1C 37 17 3F 1E
 6E D5 B6 69 BB 4C 11 2C 4A BF 25 82 CF 32 2B 03
 8D FF F2 26 A3 78 CF C6 1E 80 7D 40 C2 D4 9F A5
 9A 6B 4B B1 39 49 7E B9 88 AD 00 ED C7 D2 D4 39
 EE AB 48 C0 FF AB 6B 84 47 C7 F0 CD 13 A4 25 08
 D7 BA 43 F7 B9 3F D8 AC D2 61 D2 3B 46 A4 E2 25
 61 B4 EA 12 4E 4F EE 13 B8 C3 8E 56 1B 0B 4A DE
 2B 2C 50 02 6F 6D 55 B1 92 A1 0D 87 4D 99 97 43
 E3 FF 91 7B 23 F2 12 95 B8 EF 7E 3F 48 41 22 91
 91 06 AF EF 77 42 02 A1 DF 3C 52 0F 3B 52 11 B2
 6E 85 C1 FB 60 7E 99 BF A9 00 89 19 BE 84 8D 70
 33 98 05 F6 2A D9 51 54 CF 7D 7F 59 60 84 2E E2
 C2 EA 52 60 C1 BE 92 34 0B 7C CF 47 09 FD 87 48
 92 82 24 22 8D C2 84 5B 39 75 46 CC 70 AC 6A D8
 7B 0F 63 54 E5 7A 3F 27 E9 4D 65 D7 A4 D7 AC 35
 8B EB 71 C6 96 32 0D CE DF CA B6 30 0F BC 4D 4A
 CE A3 7D 49 A5 26 27 91 D1 A2 A9 EF 56 86 9C 51
 F5 AE 79 63 4C DE D9 20 80 E4 EF BD FF 01 DA 2D
 3A 61 E5 D1 1A 90 A1 89 18 A7 D7 7E 65 BB 02 EA
 6D F4 E2 E9 49 26 52 59 FE 74 1B 3D D2 9D D7 E5
 CA 5E 9C F1 56 59 E1 27 89 A1 8B 3B 87 59 EF AA
 1E 40 3F DF 0B EB 9F AB A7 89 A3 22 1E AE F9 BE
 86 CC 00 12 25 69 42 81 17 9E 69 38 04 3F 07 8E
 05 3C F7 36 13 37 C9 96 D0 A8 64 AB B5 06 AC AA
 E4 D6 32 5D 25 86 23 39 57 C9 19 3F 75 DA EC B7
 F2 B0 40 24 CB 88 41 67 5F D3 9A CF ED 42 40 90
 05 12 F2 87 7A D3 47 75 CE 86 4A 64 CD 65 6F 14
 AB CB 10 44 8A C9 4D 0F E4 05 6A 2D 5D 71 0B 4B
 CA BC 6E CB 47 3F B9 57 49 D1 3B 05 B1 56 91 11
 84 E3 C4 D4 7D B4 EF 28 3F CB 08 86 09 B5 23 1F
 BC 23 BF B1 A9 EC DE 86 50 2D 1C 2E B3 9E 88 5E
 02 83 89 DA 1E D1 3A 26 21 28 A5 0D 24 3B 24 7B
 F0 65 17 B4 DF A9 D3 CB 38 7C 04 DF 39 AC FB 17
 74 CD CB 75 65 2F 11 F5 6F DF 85 C7 41 0E 2E 56
 37 D1 B1 2B 89 C5 0D E3 01 E6 1C B3 E3 89 75 37
 A3 E2 BE 94 B0 86 A1 96 D3 45 E5 47 43 54 8E 7D
 18 AD 20 BB 91 80 F3 BA 31 7F 96 3F 62 BE 17 A0
 68 3B F3 6A 9C A9 27 B4 21 CD 04 DB E0 32 72 97
 79 FA 9C 1B 2F 98 72 EE 5A E6 BF 19 C6 AC 04 FC
 B6 0E C9 17 6E FE 0F 36 D6 E1 5F 63 98 C6 DB CF
 BD D9 53 2E 71 9C B0 B5 8F 4A 4B 79 D5 BA 6C 15
 F5 FD 54 E8 8F 7F 3B 16 14 D5 A7 B2 CC 29 A2 86
 3F B4 5E 62 C3 E4 28 87 96 8D A2 41 90 83 3D E7
 97 20 F7 13 B8 73 5B 69 77 4D 21 DA 75 59 97 E2
 E3 8F A1 80 C2 5E BE 95 10 BF 06 4A B5 AB D1 6E
 84 B8 E4 BD 03 20 22 9A F5 C5 AA B2 40 6E 32 3A
 BB CC 75 A8 C2 E4 B0 C3 47 7B 8A C2 4C 20 F2 58
 BE 55 C2 4F BA D4 2E 18 9C F2 01 92 FD D8 67 B7
 56 4E 99 01 2A 56 02 E7 B4 10 79 5E DD 02 8D 18
 F5 4A B0 CF 99 0E 80 D1 16 D4 1D F2 5B 90 2A BC
 D7 0F C5 81 28 60 C3 E9 C9 EB 51 DC 28 2C 77 CC
 B1 8D EA 44 8B 1D C7 03 72 BF 36 62 6B 28 0A FE
 8A 3C F0 58 F5 12 E2 90 C8 93 37 4A 23 4D 8A A9
 A3 54 85 A2 19 2A F2 54 2E CD F0 73 DD 5A C5 35
 22 F7 99 E5 E4 3D C8 57 32 40 CB EA 1D 52 43 84
 81 DB FD 95 AC 84 D4 6C 0F 2C 4D 10 4C 7A 7F B1
 7B 73 36 60 C1 6F EF 7B F5 3F C2 54 59 F5 CC 0E
 55 2B 7A 3B DB 09 4A 91 DE F5 02 13 6E E8 A8 8D
 DF C0 27 A0 B5 B4 6B 77 AE DF 1E EA 81 31 7B 80
 F0 EF 27 DF AD B8 A6 68 45 72 2E 62 64 5F 9A 69
 C4 65 83 45 FC B0 66 F4 B9 F7 E1 61 09 D9 CA 00
 15 07 DF 19 1A 98 0D D8 06 BF B2 D7 8F 0C A7 04
 3D 9B F3 CD 41 D4 95 EB 7F B4 8C F3 0C 12 28 6E
 4D 8B 1C 09 DD BB F5 EB 4D 10 B3 80 C5 7A 6B 79
 56 2A DE D8 29 9E 4F 02 BF A1 93 B4 46 DA 4B DF
 A8 A2 1E EE 0B 96 A1 28 20 12 0A 52 C3 A4 2D 92
 5D 68 3D 47 3B 8D CA A3 D1 E6 9A 12 BA 24 31 21
 0C 42 36 0B 03 30 F2 0F BB A7 BA 9E 71 FC DE B7
 FE 60 D4 6B E1 B7 F8 34 25 11 0C 2D CB DE 1A 41
 75 0B 19 8B 02 20 EE F4 46 0B 8A E9 2E 1D D6 F6
 5E EB 06 01 96 07 18 B2 B3 6C 44 DF 0F 95 F0 30
 8A 77 C7 AB 6E 31 F6 E9 00 21 1C B0 62 72 62 4F
 60 B3 38 15 F5 4E 49 34 4E B5 5A 48 8E B7 D7 D6
 94 95 8E EF FC 85 10 E5 06 14 CF C0 C4 41 8A 2B
 E5 EA 77 49 B6 2E D1 FC 70 3A 3F 7D 5D 1B D5 DE
 DD 3C 0C F1 04 AA E6 C3 21 CE 02 1B D7 17 A5 02
 B4 83 D8 0E 6E 1C AD 06 04 DA D6 56 A4 D7 B7 45
 1C FB B7 54 11 77 C5 C4 E8 BE 2B A4 7C CA D2 B6
 97 FE DE 4E 75 47 B0 15 94 AC EA B9 B7 CB 9A E1
 F2 A1 4A 74 52 E6 79 7B FA D0 F9 76 EB AD 94 0E
 77 9B 04 C5 DA 5A CE 3C DB 17 68 59 AE EC 15 AC
 CB 14 EC 86 7A 3D 5A B0 0F 3E 40 23 1B 1E CE 0C
 BB ED 0C 33 57 72 BA 2A 25 AC 14 F6 9E 5C C8 14
 E8 4D FF AE C4 F3 B6 5D DF 10 4C E2 DE 49 26 EB
 F2 44 65 CB 05 7B C1 8C 6D B4 2F D7 78 49 18 B2
 B2 3F 43 00 5F CA 78 E3 C0 64 A2 50 4C 79 B6 ED
 CB 62 AF 7B CF F6 21 FF 26 04 C5 9D 57 FE A4 A3
 00 56 CE 12 61 98 BE C0 6E 01 8F BA A7 E3 63 01
 82 42 AE BA A0 64 35 66 7F 47 16 69 2B 4C 71 DE
 C3 73 D8 97 E6 F6 80 22 7E 70 0D B7 15 58 AA C4
 CC 51 E1 34 FA E2 5D AA 11 0A 72 CC 09 3A 43 2D
 2D A1 ED E5 BF 17 1A BC 28 95 56 CC FD 83 85 4A
 2F 65 A9 57 9F 69 B5 87 E8 6F FF 8C A6 DC FF 18
 D4 FE 89 17 22 E3 FF 44 47 E3 78 73 1A 37 97 29
 DD 1E C8 6C 36 64 9A 2D F0 56 88 9B 9E E5 18 81
 95 12 4A AF 72 B7 9A 43 27 73 53 CE CF 1C 8B E5
 80 EB CF 7E 71 ED 8B 8E D7 18 A1 14 51 B5 A3 4D
 9B 5A C6 01 62 AF AF FE 30 C9 7E 9F 00 91 E3 79
 B7 8E 22 46 E8 0E 56 98 F9 85 E3 24 80 EC B3 05
 D4 E1 30 B6 1E 16 C7 8A 9E B2 55 A7 BF E2 48 69
 7A EF 6C 6F EC 8A 8E 7D 75 6A 00 C1 40 81 80 2C
 FF 98 0F 0D 39 59 DF E2 A4 68 2F 94 62 37 8F 73
 54 F1 72 E5 6D 74 96 CE 2A 0D 63 75 49 EA 39 AD
 33 30 F4 B8 29 3A CC 0A 32 FC 28 06 13 17 47 D2
 BC AE 75 A5 70 91 E6 26 0E 61 43 AF 90 6C 02 9C
 D9 77 B3 F4 C1 47 4D 1C 3B C1 29 48 44 46 EF BF
 B9 C3 E4 9A 8B 2F D7 A8 EA F6 72 C7 CB B9 47 40
 22 4F 6E E3 EC E0 2F 30 2C ED 35 B4 7A 9D 60 21
 B7 E0 CC 44 9D 88 25 96 42 18 AB 82 EA 6F CA 01
 99 BA E4 FA E5 9D D8 E0 78 38 39 C7 A0 81 FA FA
 13 A7 8E 02 AA 63 6D 7B BC 8E 98 04 12 47 81 99
 A0 7A 46 83 CB D4 D4 7A C0 0A 9F B8 6E A3 9C DD
 D5 60 60 6E 3E D1 20 87 85 46 C7 AF 30 43 32 E1
 92 3D 6E 39 6D 4D 19 D1 BF FA D0 54 DB A1 59 72
 10 1B 3F 1B 77 D4 07 3B 14 3A 72 12 0C 49 D7 DC
 F0 32 09 C9 22 29 9D 5B 09 71 FD 7B 34 2E 2F CD
 0A 1F C4 EF 17 52 EA AF F1 08 C1 D9 F7 68 14 A6
 19 5B B7 6C 43 74 D7 BC
* End 1447639257 122256416