* LTspice Encrypted File
* 
* This encrypted file has been supplied by a 3rd
* party vendor that does not wish to publicize
* the technology used to implement this library.
* 
* Permission is granted to use this file for
* simulations but not to reverse engineer its
* contents.
* 
* Begin:
 7B A3 49 6E 57 99 22 2B DC AE 56 76 0C FB 40 89
 5C 76 7B 34 8A D3 70 85 D5 B8 27 7C 0A 58 03 6C
 AD 4A 95 27 92 82 DA C9 3E 4D 0D FA F7 DA E3 DA
 99 C3 EF 50 9C ED FC B6 3B 2C 9A E4 18 DA F7 9D
 68 BF 90 7C 8E BA 46 7B 04 04 FA 81 74 11 57 12
 42 EA 8C 47 A8 4F B2 54 6B 40 45 5B F2 07 C7 3D
 C8 0B 40 8C EF D7 D0 50 1B 13 B2 8F 79 30 ED 66
 37 B9 5E E8 CC 28 D6 00 48 90 A4 60 39 AF 1A 4F
 A3 0E 0B 93 45 18 89 61 7D A1 C4 98 1E 4C 39 6A
 65 D4 08 A8 A1 14 FC 76 BD 2C 0F F8 88 85 53 0F
 0F A6 C6 3F 67 04 90 F2 A4 46 5A 1E F1 6B D1 6C
 58 9E 99 13 B3 3C A0 70 1B 45 B5 6F DD F9 7C B7
 48 BE 07 EA 80 5B 25 2D 7E 0E 24 7A 09 F0 91 10
 D8 E7 7C 31 F5 77 F0 1F A6 EC AF CB 58 C4 F2 A3
 01 38 6A 82 53 B7 6D 31 B1 06 3E 3D 49 82 CF 6A
 D0 DF D3 92 1E C6 E6 FE 73 C8 7C 46 BE ED B9 0A
 54 84 29 F1 F2 4A 01 1E 34 A3 97 03 56 38 66 17
 2D B1 77 4F E6 CA 13 82 76 C4 43 DE 96 EB 78 54
 26 F6 BC 4E 4B B6 CC 3F 56 FF E5 8E DD 63 64 F9
 A9 34 16 26 2E B6 CD 65 CF D6 2D D9 E1 48 51 A3
 7A 00 12 13 FA B0 0D 84 28 97 8E 28 A6 C2 CE 8C
 D0 06 23 9C 19 CB 97 FF FB 28 BC 71 BC FE EA CB
 B4 4C D5 8B FB B0 12 B0 BF 9D 5C 61 91 11 CB F9
 CE AF 90 DD EE 86 0A C0 90 4F AB E3 54 48 22 14
 6E 43 0F 82 F8 62 25 47 18 D1 2B 28 B8 11 4B 90
 4E B5 18 88 C4 ED 40 B6 A9 66 75 67 25 2B FA 81
 D1 A5 F7 2D C8 A1 98 73 81 7E 6A 3B 1F EB A5 87
 7D ED 49 8E 1E 66 1F C5 0F D5 2C F1 72 6C 65 F9
 86 06 09 C3 F6 2D F6 F1 13 50 25 E8 97 9E 5A 8E
 46 CD 60 2B 8F D0 39 46 0B 92 5D E5 20 AC 30 17
 1C B2 28 BB 05 16 6C D3 87 9F 2E 6E 60 A2 BA 81
 2F 11 00 D6 59 7F D1 2F 20 4A BE DC 20 84 68 27
 45 8C BB AE FE B4 11 EB 90 EE AB FD FA 9D D9 15
 75 32 AF E7 3C C2 08 8C 80 3D CF 31 07 39 EA 5E
 49 5C 30 F3 5A 92 51 20 8D 34 E0 E2 C2 04 0F 23
 27 9F FB 22 E8 FD 1C 32 85 8D A9 97 54 AF 22 21
 8B 2C 6C 10 DE E2 3D 2B BF DD 6C 12 03 9F B1 4D
 27 A3 FB B9 4B 6E 44 88 A3 7A AA D2 91 C8 2D 27
 F7 72 41 DF 66 91 6B 6A 4B 8F 3D 48 7D 9A CA 64
 88 12 8B 1E 86 F4 C2 CA F6 54 15 C7 A4 89 1B 5A
 07 C2 FE E0 1A 1A 37 A7 D1 83 27 C2 38 FB 1D 85
 92 3E 72 B5 41 6A D0 96 3F D1 B6 F2 F1 00 8A AF
 A4 D6 7D CE 3B 73 F5 D7 71 5F 0E E8 06 F1 2F F7
 81 24 52 4F A3 8C 7D B3 63 C8 0A 98 D7 17 AF 56
 A2 8D 0A C3 EF 02 CB 6E 30 9D 7A 6B B0 42 AB A1
 8D 46 02 59 2D 46 66 95 E9 5E F6 DE 64 56 BB 82
 74 26 B2 D3 7B 16 D8 1C 1E 73 FB 17 7E 51 E4 91
 59 81 00 73 99 53 7A 74 84 2E A8 8D A0 EB F4 EB
 B6 30 29 CC 2A AF 29 2B 14 D8 83 A0 6F E5 45 41
 18 FC F3 4A 79 F0 C8 96 DC D8 33 9A 17 9A 2F E0
 9A 8C 99 3F A3 69 6D 5D E7 DA 73 1F EB BA 3F D7
 D2 1A 7A 4C 47 CD F5 34 D9 45 58 CF 2F 04 95 A5
 92 90 D4 12 3C AD A0 7A CF 13 0E BF 2E 22 F1 27
 B6 E3 4E 6B B6 D3 15 E8 2A C4 0A 3C 65 0A 7F 2D
 9B E3 EF CC 48 90 24 51 FD 11 94 D6 EA 2C 0E 2D
 BE EF 0A 3C 7D 2A A6 80 57 16 3C 73 47 36 67 14
 0C CE AB 81 63 94 27 51 11 EE 44 AA 14 33 D9 06
 9C 37 9A 14 27 E7 B0 3A 3C BE 8A CE 70 9B DE 1C
 AA 16 C7 C2 8A 82 09 60 D3 14 CC AC 9A 9D 6A 31
 13 E2 48 0A FC 5A 4D C5 92 A2 E2 B6 16 AC 72 E2
 16 2E 5B 1D 1A 96 E3 EE 9B 7A 8C B7 A6 B6 FB 51
 81 E6 6E 9D E1 77 BD F0 4A 3D 92 EE 9B FE CE 6A
 93 97 BA 50 4D 65 12 D2 0E 29 61 61 3C 36 64 59
 ED CE B8 9B E3 F9 82 AF AC 15 C0 C5 1F 73 13 EF
 26 2D F7 DD CD 80 1D FF 4A E2 79 B9 F0 79 96 4E
 93 E6 51 C0 B5 51 8D EB FD 67 35 F6 4F EC F6 FE
 A0 5B E4 2D 5A 2A B8 15 8F E3 4C 8E 82 F2 F4 16
 E3 FF 67 2E EA 50 56 6A 51 55 5B F7 2F 68 6A 3F
 A5 EF C7 2A AE 4A 10 65 BD FB 14 31 76 80 98 6F
 67 8A 08 F2 0D BE 4E 30 32 A3 8D C0 59 14 8E 21
 AC 92 99 06 CD 69 A3 7B FC E1 7F E7 59 95 95 2B
 CE 45 DD F5 16 B2 E4 14 3C F6 48 CE 47 4B E2 D7
 BE 8E 17 99 8B 6C 89 12 CE 73 CB 39 FD 6F D0 B9
 B0 04 AE DC 50 53 1E 06 1A 14 F9 7E C1 F5 B6 5C
 AA 0A FB 1F FB 2D E5 87 6A 55 0B 79 63 73 9F 22
 32 86 EE D4 08 FB D5 CF 7A 16 DB BE AD 84 9A 40
 6C 99 83 1D A8 A8 B7 24 24 53 E0 F9 3A BB D9 F9
 C7 43 A0 19 4F A5 83 96 9F 70 7D F7 A8 BA DA 88
 BE CE 60 1F 23 B1 C4 DF C4 10 D4 B5 F8 22 1F E3
 13 A6 7F A5 FD B8 0E A4 F1 80 62 EA C3 2C 83 E3
 E4 1A DF 3F E7 00 71 13 66 80 42 F2 4D B3 A7 36
 B1 43 F6 8F 26 3F 23 91 AE 7B CC 6A F9 0A 95 B1
 5E BC E3 FB F6 84 E9 D6 63 51 E6 34 1B C3 2F E9
 C1 EC D7 8C F4 07 20 AF 78 11 BE 03 5D 2D 76 3E
 1B 9F 78 0F B7 BC 52 4B 95 DB D9 2F 84 3B 4B 2B
 FF F5 7A 58 D3 E0 3E EC A1 82 5A 6D C4 F8 FE A1
 11 04 CB AA BF D0 F5 89 EE 7A 42 26 9D 6E 28 DA
 2A 18 55 39 9A 6D 8D 59 2D 5C 24 85 A2 5F 6E 65
 DA 58 26 A5 22 FE 56 07 24 21 F1 09 DD 73 67 21
 45 A4 A3 2B FA DD 6C 55 82 42 C0 D4 F8 9C 6D BB
 88 AB EB D0 BF 6C 7D 7B 4D 90 ED 81 23 77 24 2E
 6C 2D A9 19 91 D6 8E C5 1C 72 4D 7B 98 CA F1 E4
 2A 5E 2C 59 A0 F5 4D 2E 04 5C 30 49 11 35 56 E2
 76 F9 42 B3 0D 82 1E 29 E9 F8 D9 AB BE F4 E3 0A
 FE 54 1B D8 A4 6A B3 1B 11 3E FD 0B A5 7B E9 31
 87 82 43 9F 63 F3 9A F1 38 4B 70 C2 AC 6D C8 BC
 38 27 76 19 F3 E4 F5 AD 4B D4 22 4B 48 55 9B 0A
 C4 DF AD 97 0E 23 C0 F4 D3 3D 04 34 F4 88 05 50
 1A E0 70 D5 C1 95 BF 71 B7 55 D3 52 3A C4 DD 84
 DB 7E 55 44 73 FF F7 47 5A 0B 09 A2 EC 53 50 30
 2B 25 8C 90 28 EB D7 65 B9 46 96 03 CA 3A C0 D6
 FD B7 17 61 BC DC CF 9A 9E C3 5A 1A 69 DB 5C 2D
 82 16 4F A2 84 E8 85 68 88 73 25 BD 49 4F 39 A7
 AD 8D 31 2D 11 D7 17 F3 82 53 55 5F BA D3 E6 D1
 76 24 15 83 72 2D 09 93 F3 A7 B7 EE 72 E2 A7 85
 36 B8 0E D2 AA 0E D7 1F 7F 1F DC 38 5E EE CC 2D
 E8 56 8F 4A 63 13 03 FD 72 5A 54 5F D9 03 07 04
 D5 7C 0C 2C 80 69 D1 A1 3D 2D 44 A0 B3 4B 91 A2
 FD EE AA 74 23 31 4A 9C CE 47 CF 51 CB 94 83 D9
 3C 55 54 6A 51 B2 5E 66 B3 A8 44 07 68 6E 8F 43
 43 C4 1F 21 2F 36 23 4F D6 C3 7F ED 74 04 7B 73
 8F F1 97 D0 FE 3E 14 4B 0F 91 B7 30 45 1A D0 9E
 D3 0E A5 00 43 4A 55 A4 3E A9 69 1C 3F 0B 22 93
 D4 20 63 09 89 DE 95 1C 17 97 28 C9 17 4D 3A 67
 BB 38 51 DA A8 2F 07 7E 78 55 52 23 54 6F 01 05
 DF 6F 39 D7 B5 C4 34 38 69 90 C4 73 C8 76 DB 1E
 F8 FC BA CE D7 A9 B5 00 72 61 49 4F 01 4F 60 6F
 4B 3B EE BB 46 31 88 3F 29 7E 71 9B D5 A5 AD 17
 A7 59 D2 E0 09 39 5A B9 19 B7 C6 C1 8B 49 02 A2
 16 AA 5A BC FA 96 42 B9 47 30 DF D7 5D E1 1C 5D
 63 91 6E 76 A8 E1 E9 07 99 48 6C EC 3E D3 00 BE
 96 4F A5 AE 61 FA C3 C8 B4 DE EF C2 89 1C 6B F6
 5E 8C 6B 59 EC F7 BF 7D 0E A8 54 71 BE 7A 11 F4
 CB D4 4A 7D F9 82 0B 54 C5 01 EB 96 63 8F A0 29
 8E EB 62 0D 65 3F 00 F8 A0 D3 84 DC 10 B7 8C 5B
 02 51 82 D9 20 84 C8 6E 87 38 7A 00 C4 CD 48 87
 88 93 35 1D 70 C9 40 2B DE AB 4B 27 97 31 21 D0
 3B 73 84 D8 7F A3 7E EA 24 45 9F 1A F3 AE 9F BE
 95 73 98 00 7D D6 B0 B3 E2 1E 3A 09 85 19 65 5C
 EE A3 5B 40 84 91 DB 15 A5 46 00 57 F2 75 7F E9
 0D 32 7F EC 89 85 FC BB 8F E5 7B 6B B0 2C 26 1E
 A5 E5 44 06 43 47 4C 51 ED 69 1A 82 34 E0 28 22
 AD 9D 2A 48 1E 4A BE 01 38 B2 80 68 CA A6 B8 34
 35 D8 CF D9 52 F7 2A 42 5B 24 58 97 B0 F0 16 CA
 AB 7B 8E AC 97 58 26 79 09 07 7C 3F 47 4C 8E 1E
 58 1D 8A D3 62 9E 5B A1 2E 34 A7 03 38 0C 51 9D
 7C FB 15 65 80 4B 88 33 97 F6 B7 60 25 B8 5F 58
 36 D7 4D B1 EF D3 69 AB 74 87 A3 A8 61 18 30 71
 0C 8A 2B 18 E5 FF F9 CC 5B D6 62 10 1E E8 F6 48
 A9 34 9A 8B 02 D1 95 0F 0D AF C1 3E 85 83 5A 31
 7D CA 73 15 B6 23 49 90 E1 43 E9 3D 7E 95 4A F8
 6F 78 05 D3 D6 BF E2 2A 1B BA 21 BB 4D 22 60 C1
 F2 B3 30 0F 38 7F C2 9E 6D 8E 20 E4 3A 56 3B D9
 34 CB 3C 79 CB 60 DA DE 0D 7C 18 43 E5 B5 12 F7
 03 8B FF 15 EC E6 8B 75 E7 DE 93 B6 AE A9 B4 92
 FA D7 05 37 72 76 8C 34 92 3D 4B 5B 90 1F D8 54
 C0 2A C3 29 F9 21 AE 59 4B 7B F4 34 4E DC 37 5B
 CB 27 AA CF BD 91 74 D8 69 97 EA E6 75 68 79 59
 F4 5E 19 D8 E1 B2 41 81 71 D2 C0 84 26 D6 BC DC
 AA 4E 19 92 2B 14 2B 08 8A 8E 66 CA 30 3D F8 E0
 90 A0 C7 72 AF 89 1C DE 24 19 32 79 10 DD FE DD
 80 8A 52 22 90 16 8B 03 25 25 7B 2C CF 13 1A C3
 17 38 67 1C 80 4C 70 C1 F2 85 C7 82 3F A4 F4 99
 31 14 D4 AE 44 3E B0 AE 0D 60 F6 69 8A B3 7B 44
 B7 7E 4E 29 11 2D 3E BA 78 F8 6A 2E 22 96 63 66
 4E 3E 1C F1 A0 78 D5 F6 6C 37 EB 57 03 48 29 56
 45 60 35 E5 FE F9 18 EB D4 3D 1B 1C E2 A9 F4 1F
 0C 9B 6C 03 69 99 D5 EF AF 68 FC A0 5B 2F AE AC
 5A 66 36 89 1E BA 72 89 A0 CC 38 1A 0D 6F BE 0C
 C9 0D AB 9B 92 05 64 56 D2 F4 93 9A AB 8E 70 1E
 4E 27 AA 69 0A 42 90 10 07 07 8E 2E 4F C9 B3 36
 31 1C 4C E5 81 7B 37 A3 48 8C 17 8A 4A 72 D2 7F
 4A 36 B7 48 82 97 FB 3A 80 16 CD BB 93 37 59 1B
 31 EC 92 64 BF 1F 28 EF A6 73 C5 BB 79 7D AC 20
 BD F2 48 A3 21 F7 00 43 7A D4 A5 14 40 D7 35 E2
 2E D9 87 89 10 A6 FD 7D DA 8C 9B BF 58 A7 C3 49
 78 F2 DD F4 E9 C8 DE 9F D4 C5 D9 CF B6 01 3F C7
 1F D2 C1 93 F7 17 45 E3 5D 7D 75 67 82 AC 3D 3B
 88 23 C3 67 CC A3 E1 9F 34 B0 85 2E CC FB 26 01
 48 79 0B BC C0 D4 01 FB 52 C3 42 FF 6A 4A 30 6E
 3D 4E 08 7E BA F7 6C 92 18 FE EB 26 B0 B2 D4 12
 C6 02 84 D4 A3 82 59 23 BF 6D F7 30 4D A8 BA C3
 01 28 3F 48 2F AD 76 4F B0 88 CA C7 2A A0 C1 DA
 EF CC 62 78 FF C8 49 E0 1A E2 AB 4D D0 BE B7 E5
 70 5E 77 7E 7E C1 E5 89 FA A8 60 0B 04 8F CF 1F
 C9 70 5C 8F 0F 10 6D 16 90 E6 94 1C 92 1A EB 41
 ED 60 FB 8B B9 7B 68 04 74 D6 FA 45 B2 3F 19 6E
 FF 3F 8E BB AE 30 AE F7 F7 E7 EE 4D 95 2A 31 2D
 E2 FE 25 6A C8 90 4E EA 2E C1 A0 8B AC 86 1E 54
 7D 8C 3A DE 7D 80 49 7C 2A 03 8A 1E A9 04 23 92
 3B 9C E7 3C D4 3B C8 A9 8C DC 4D 21 D3 57 50 FD
 D4 E2 72 64 10 B3 AA BB 43 BF 61 6C 7B 52 ED 6A
 42 10 34 70 2B CE B9 B9 44 0E A8 EC 5A 02 21 3F
 D9 FE 16 E5 6E A8 5F C8 AD F8 DA E4 A2 30 C3 F3
 FD EE A7 FD 76 80 1C A6 AC 0D 12 53 04 EC 58 73
 38 D2 FD 4F F0 56 35 C7 39 F7 4F 6C D9 08 86 8D
 BE E4 2F C2 E0 1B 23 5E 1B 04 AC 87 08 E7 A9 43
 6E 01 B4 4C F5 80 83 40 6E 21 0A DA 19 38 54 AF
 73 A1 7D FD 25 BE 97 BE D3 CD 96 04 93 60 8B 86
 AC E5 A6 45 AA 99 88 31 39 5F 03 A8 A6 AC 14 1D
 6D EB 4E 88 46 71 E8 99 BD 76 C2 8A 89 2C 3B C7
 E8 A2 45 84 44 4A 2A D9 A6 89 D9 6B 2F 93 2E 65
* End 1775675548 3742692332