* LTspice Encrypted File
* 
* This encrypted file has been supplied by a 3rd
* party vendor that does not wish to publicize
* the technology used to implement this library.
* 
* Permission is granted to use this file for
* simulations but not to reverse engineer its
* contents.
* 
* Begin:
 54 78 A1 C9 45 26 C7 99 0B 06 16 26 61 23 BC 79
 71 4A 3A 2D BF 5C B6 07 BF D9 47 FC 80 9F 59 0C
 F2 04 88 78 02 F3 7D 99 17 64 BF F8 F6 36 D9 09
 55 13 9F AD 66 D8 4F F3 75 75 FD 52 AF 59 D0 1A
 2F 08 95 27 E1 54 F9 91 05 09 F6 35 52 6C C4 9A
 4D 82 05 C2 EA 02 96 7B C3 D8 06 EB 63 7F 3E 79
 2E A8 B8 DB 3D D2 D1 31 90 ED 1C 1D C0 C2 29 F0
 8A FD EC 1F D6 82 1A 87 BE 06 EF 2D FD 82 F3 4D
 8F 77 23 0F E7 83 DD 37 30 D2 6D 1D 41 C8 24 04
 72 38 FB 9D 31 1C 16 EE CE F5 AF E7 DF 98 A4 B0
 00 73 23 E2 5B 71 99 8D 5A E6 21 2F DB D5 F7 40
 20 C7 8E F0 4E 1A 37 D3 B6 2B AF CD E3 BF 20 DD
 96 8F CB 45 C4 CF D7 8C C9 F4 C9 BB 69 7A 6D 99
 4E D4 F5 70 37 9A 15 45 A1 A4 A9 E3 80 67 F2 04
 D9 F0 F8 93 E9 43 A2 EB 72 AC 7B 7D AF 9B AA EF
 31 FC D9 E2 0B 64 F5 73 58 17 F2 59 68 1A CD 6B
 2D 10 54 83 FA C5 4D EA D4 BD EA 0C 54 57 1D 5A
 AD 54 E3 3F 13 5F 40 51 1B 12 3A C3 58 06 78 73
 57 9E 8B F7 DE C6 B0 1F 91 24 BE 5E 10 66 F2 7B
 1C 1E E1 6A 96 11 0B 10 EC 5A 77 2B 20 16 17 80
 35 65 89 E7 01 E4 78 3A 5C 9A 38 30 AD 04 05 97
 C1 31 5E 8B 7E C0 AC E5 16 7A E3 09 18 35 2C 1B
 C0 51 22 FA 6D C1 90 23 EB 27 5A F5 CB C3 7F 4C
 3A A6 21 FD 0A 86 B4 26 9B DD CC 9F CC BB BE 18
 E8 96 AA AB 4A A6 F9 FA 46 6E 33 6E 7C 40 C6 55
 7A DC 8F 9E EA FD B6 1B 80 7E D5 48 DA AC 1B E7
 16 07 C0 33 F4 F8 8D CF E8 69 26 12 7E 16 0D 02
 30 FC 9B DC 13 4B 07 7B 75 9A 5E EF 16 A6 85 7E
 28 99 7B CF 16 7B C8 84 80 6E CC 13 0C BD 73 CD
 6B D9 06 3A BB 5E A5 A5 4C FC 6E FD 64 E1 1B DE
 E5 19 0A A0 08 AC B7 99 9A C0 C3 33 27 8A E8 6F
 07 26 D8 17 7E 8C 37 02 B2 68 26 EC BA 96 68 F9
 D5 D5 50 D6 D7 8F C9 50 9C EC 5B D6 59 C9 FE 30
 10 28 03 8C 78 46 A7 3F A0 AB 1D 60 B4 80 9E BA
 72 96 51 41 2E 96 CF 97 8B 66 BD 86 C7 A8 EC 70
 86 E5 0F 5E EB B7 64 FA 10 FF 85 FE 15 B6 6E 65
 01 90 B4 21 99 54 56 D5 B3 90 90 66 B6 B3 B1 7F
 5F D1 33 34 45 7F 00 EA E1 8F 9B 4B 64 68 2A 28
 C9 42 BD F1 D6 48 70 7D AC 93 31 93 1B 31 B6 7D
 F7 AE 4D 89 BD 22 05 3A 8C 10 D5 AA F0 F5 7C 1D
 5E 8C AD 92 EF C4 99 46 C2 5A 9C 20 05 B7 81 F2
 04 D5 E6 31 D4 AE B0 F4 10 54 50 08 C1 36 92 CF
 D6 5A 1A 2E D8 9B 06 98 DB 11 3F 3A A3 32 94 DE
 B9 2B 1F 35 7F D6 55 D6 F1 B8 3A C6 9F 95 FE B0
 BA 5F 30 79 CC 2C 26 0A E4 60 0F CE F4 4F 7A 83
 BE 72 E9 FD 5C A4 65 F6 AF 89 43 88 34 F8 8A B2
 5E 81 A0 DA 05 73 9D 2F 3A 04 FF 84 E9 A3 D3 D0
 8B 73 CC DB DE 6F 1B B7 4D 7B 01 90 88 B8 70 DD
 04 1A 83 C2 B6 4E DB 53 DD 5F 7C 03 13 93 3E B3
 BD 91 F3 C1 99 F3 16 63 87 68 7E 7F 39 63 5B F4
 12 9C 8D 6E 29 51 8B F1 DC 4F BE 8B 2A BE FE 7F
 DA B3 27 EF 50 61 E1 DF 20 1C 70 53 5E AD E5 0A
 F9 BB B3 23 CA 2B 40 56 CD 97 2B 71 48 12 40 79
 A1 4B 57 FA FD C2 43 EE EE F0 06 C9 7D EE 9B D9
 C4 54 AA 39 33 46 B4 93 09 9D 25 E4 48 01 7B 97
 49 AD 46 E4 B9 00 4F 5C F2 78 41 8F 20 6F 7C D9
 7D 63 9E 89 15 DE E1 A6 2C 48 08 FA 6E 18 E6 91
 FB 25 55 F1 E9 87 36 42 50 42 C0 CB EA 29 D3 03
 5F 3B 07 9A D0 42 72 40 26 1A E5 81 D6 DD EB 93
 EF D2 8F 41 D5 B7 53 A1 03 44 9B A1 A3 95 91 73
 AF 90 42 45 1A 68 51 B6 A9 F5 0A E0 09 A4 07 BD
 4D A7 74 E3 0C 37 5B B6 77 B1 42 65 0B 82 53 57
 A0 3F A9 FE AD 1D F2 45 FE 3C 80 01 F8 3D 87 3C
 DF E0 A0 13 4B 72 56 8A E6 07 E4 7F E2 CD 87 A7
 54 9F F0 8A B4 2A D0 6A C8 B3 AB 8C D2 D3 65 E7
 32 E7 05 46 6D 30 85 63 47 AA BA 19 1C 3E 47 E2
 1F C8 4B 73 EB 2F 4F 7D A6 82 92 C4 2A 25 87 9C
 74 84 1D A0 7C 82 2D B3 63 B4 C2 7C 2A AD BE CB
 32 CC 94 51 6B 0C 4A E0 9C 06 09 B5 0E 87 9F 7F
 ED F9 D9 9B A0 56 B3 93 EF 32 2D 64 D1 88 BB D3
 64 EF 05 F6 E6 56 70 5F BB CC 9F 67 61 6D AE 67
 1D 75 52 B0 CB A2 1F E2 52 95 E1 94 B8 90 5C FA
 18 5F E6 07 0A 10 90 F1 85 F7 04 2D 31 D8 55 43
 E7 FA 1D 16 59 B5 5F 32 22 B6 F5 02 09 16 93 EE
 1A 3F 0C EC 32 B6 E0 BC AE D4 0C 3B BB A6 B4 F6
 9C 58 02 86 07 9D 06 00 02 85 EE E1 7C 8A 45 14
 01 86 46 84 EE 08 B5 9E 53 54 CC 22 64 BA 9C 41
 EB 5B 9C AE 80 23 53 AD D5 E8 85 6D 83 09 48 A2
 9C F3 59 F8 A1 69 C7 FA 64 0F 82 CE 42 47 4D 68
 AD F6 F3 E3 04 5E D0 74 A6 5F 25 3F D6 41 AA EA
 4E DF 75 9E 46 3E 8F 6A DB 3B D7 3B 23 63 72 53
 CB 29 70 B8 42 DF E2 57 46 9D 46 E0 D6 D1 0C A8
 DF A8 2B 69 41 96 2F C2 1C 7A 21 49 94 F5 44 63
 16 C5 ED F1 3D 0E 70 52 E6 5D AE FD C6 AC D3 65
 5B 7E 92 C8 F9 E2 BE DB 34 8A 78 54 76 88 04 46
 EE 68 19 6B B9 AB 9E 67 5B DD FF 0F 39 E9 C2 57
 7C DE C7 82 78 49 6C B4 D0 07 36 E6 25 CB 3B 55
 6C 05 D5 AC AD 5A 2E 10 E3 A8 A3 2D FA 08 DA D6
 CC E7 44 8D E2 24 4D FC B4 53 1D 4D D0 BD 80 11
 9D D1 82 02 E6 D5 85 B2 A8 B9 AF 5E A9 D7 0A 0C
 96 7E E7 D5 5D FF ED 68 FC BF BD D7 2E 85 FB DE
 80 5D A1 52 11 5B 6E DD 1B 39 9F CA 89 EC A2 B4
 C3 4F C5 37 D7 3E 07 68 34 BE EA DF 41 23 9F 68
 BF C0 C9 54 2E CF FD 94 3C 80 A0 25 A0 94 C3 01
 02 8B 32 88 C5 58 CC 3D E7 18 1F 93 E4 2D EE D0
 AC 64 06 23 0C 2D 45 21 A0 4B 0A 98 94 DE 35 58
 62 64 6A 6A B1 88 50 10 80 96 BE D1 B8 29 42 A9
 AF 62 38 00 F4 8E 71 40 19 38 12 9A EC A3 F3 FE
 D1 85 71 6A 94 43 9A 02 64 81 D3 2E 9E 1C C9 B3
 EA DE 67 02 B6 54 37 22 19 7E B9 C1 96 86 4B 38
 49 6A BE 0C B5 A6 AE 08 CB 7E DC FB D2 03 D2 C3
 7C 66 CA 73 51 E9 67 F0 0F 3C 04 C1 3E 51 AA F8
 92 02 50 B9 FA C6 5F EF 6D D8 07 B1 7F 2A 12 74
 6E 23 A6 B7 B4 9C 61 0B A9 62 89 F0 06 94 F5 00
 3E 0E 2F 89 2E 8E BD C0 98 13 DF 2A E9 C5 3B 6A
 D8 48 8F 3B C6 C7 DB 60 AB E8 F9 75 8E 31 30 A7
 03 3A CB 03 AB 53 17 E9 DF E1 DD 0E 7D 53 D2 A1
 6C F4 A0 3A 93 A5 AA 03 D0 68 FD 48 AB 38 44 23
 61 20 52 C8 00 07 7A 0A 59 23 2D 55 85 1B 27 D1
 6F E7 4C DE F3 11 66 C5 A6 1F 89 78 9A 0F 15 C4
 0A E2 5F 3F 71 3D 88 40 23 97 63 C0 83 B2 6D 94
 68 59 9B 77 39 DB F3 3F 85 63 D3 15 32 8E CF E7
 19 8E 41 96 FB EF 6D 24 17 41 E1 1A CA 8C 8B 38
 DC 2D AA 5A AF EF C4 CF 70 55 8E D0 A5 E9 9C 50
 24 C6 AC C1 39 DE 4C F8 19 A2 7F 28 54 A3 46 B9
 D3 26 FF 38 65 FA 91 1A 73 A8 79 97 D1 71 18 31
 E6 00 C4 2E 9B B9 DC 97 43 CB C7 B8 08 A8 1E B8
 BE E0 9E 63 FE A5 0E 99 26 18 6C F3 13 F3 02 D3
 49 C9 5C AE F6 CE B5 42 B7 8A A3 A7 BF A1 A7 69
 E7 CF A7 43 CA 84 E7 F7 55 D8 3C F1 78 94 55 40
 8B 4A 78 BD D1 90 A3 0B C5 2C E2 6C D2 30 69 67
 82 53 82 BC 0C 68 A8 DE FE 50 AF 6A BB 0B 47 FE
 B8 29 25 1C 20 B0 09 5F 2F 46 8B 11 54 5C 83 D3
 5A 41 59 34 21 9D AD 65 68 B5 50 97 61 7C C1 40
 3B 65 E9 69 E9 A3 59 EE E5 E8 7F 09 18 00 E6 1C
 D1 1C EB F3 15 F7 AD D3 3A CA 2B D1 09 5F 58 28
 05 62 BE AC 27 D4 5D F3 66 0E 2B D6 E6 7C 82 19
 1C 58 32 30 72 92 5F 2A 2C 70 53 57 C7 DD BC C1
 23 87 6C 68 22 8F 68 F9 95 98 13 AC 27 49 76 A7
 D0 40 3F F4 1A ED 72 87 51 A6 CC FA 46 69 24 32
 7B 17 D2 53 24 5A BC 19 6E AB 46 83 EA 33 5B 56
 21 E7 7C 55 90 C8 94 E9 B4 83 05 B6 6C 25 DD 5F
 9B 05 22 F9 6E FB 27 23 BC 53 D3 82 43 AB A3 9B
 7B 13 01 0B AA E7 9F 92 6B 19 45 BC 04 59 08 B2
 1F DC BB 78 43 1E 2D EA 3E 1D 40 AC 6E C9 C0 04
 62 8B 48 D6 F1 E3 3D FF C3 27 C2 8B 85 9E B7 56
 C6 DF ED 04 27 1E E2 62 FA 91 19 48 9B DB 0A A3
 41 72 82 F9 3D C4 BD 76 2F A1 9C 7C E1 CF E5 94
 B7 97 22 AA 44 CF 58 E3 BB D4 34 90 16 AD EA C6
 B0 68 91 05 A3 FC D8 42 A4 08 53 54 3B 9D CD 93
 E7 C0 F9 B3 5C A2 66 8D 55 6A 2D 6B B3 26 EA 1C
 51 41 3F C9 A1 26 03 E9 A5 68 CD 00 06 01 70 68
 EF C5 94 D4 71 E9 97 01 BA 99 D0 54 EA 16 AE CE
 7B 68 01 41 EF 86 6B DB FB 99 FA DB 10 A7 2E 7F
 27 44 28 11 91 98 9B 3D 52 CF 5E 24 09 B1 C3 AE
 D4 8F A5 74 FF 7C 51 13 B4 B2 67 E5 6D B0 A3 8B
 03 EA D0 75 68 C2 5E 3A 5A 63 F4 9B 75 25 4C 6D
 E2 47 4E 7D 0B 82 28 C1 9D E2 41 39 A1 33 44 27
 F7 F1 01 0E 07 43 5B 31 87 B7 59 ED 32 BE AB 82
 7F FE 46 DE 53 D0 E0 DB FC 31 2A B5 48 68 D6 12
 C7 1B E5 67 ED 92 75 4F C4 97 B5 C9 B1 A7 D0 CF
 56 00 1F C1 06 80 B2 0D E3 7F FA ED 06 45 E7 EE
 48 AF 38 11 D9 DA C4 EA 43 B5 27 6D 53 15 29 E8
 03 94 0A 69 60 7A B0 89 0B 0F 64 D2 18 D4 33 2C
 06 90 52 0A A7 64 96 D5 10 A4 75 8D 41 44 D6 0D
 74 91 3A 4F 8F 2D 1D D2 A8 6D FA 89 88 47 E4 F1
 10 16 9D 34 0C 8C 61 D0 9E E3 20 6B 00 26 66 E7
 26 97 80 E5 2E 9A EF D9 6F A8 73 04 E6 53 00 AD
 43 34 7F 54 15 7F E3 2A 3B CA C9 94 04 AD 71 E2
 1D 01 C0 E3 60 F1 07 C9 00 AD 4E D9 DC B3 CB 01
 7F 20 AC 88 42 5C F3 88 F6 36 DE 64 35 B7 59 98
 2A CD 72 B0 15 4B 0A B8 EF 04 7D B5 72 8B 4E 19
 0D EE 90 07 02 3E 0A FF 8F 7A A8 37 6B 6D 6D 84
 6A 64 54 AD F4 A0 64 3C 44 44 93 96 88 7B CA EA
 45 02 6D 33 6E F2 85 D2 29 FC CA 56 60 F3 66 CE
 47 11 CF B5 33 E8 E4 9A A1 75 04 96 A0 46 22 E1
 DE 6E 3F C0 26 1E 5C 9A CE BF B9 1B 65 58 C1 03
 37 23 58 31 5D F8 2D C5 0E DB 8A D1 EE 50 17 DB
 39 34 AF 1F DB 40 DC FF B1 51 F7 E9 25 17 AB B9
 85 13 84 63 76 B5 2E D3 F7 2D C1 CC FF 7F BC 75
 DA 72 E9 AB EF EE 9E A4 9F 50 B7 3B B5 53 05 74
 7D 00 7F EC AB 68 81 3E B6 BA 0B 56 70 37 38 04
 13 09 9E D2 B4 3A 72 45 1B 5F 10 B1 5F 3E 80 AD
 12 B9 32 01 A6 D5 E5 11 BA DB CC DD 37 12 F0 2F
 CB E6 6C 38 0E 2D 90 78 C4 27 5E FA 9E CF F4 F0
 31 B8 9B ED 60 D8 68 DE 81 38 B0 13 54 6E 13 EA
 1C 1B E4 75 8C A5 96 35 D6 B7 66 24 4B 41 00 7C
 38 AF 0D 78 97 87 2A 35 07 F3 84 C5 27 C4 10 D9
 08 6E BB FD 3E 38 C5 FE 70 0D F7 BD 84 45 81 FE
 B7 8A 2B D1 B9 C5 F0 98 FD 6B D2 E5 59 FD 3B 50
 CE B0 86 CD 1D 3E E9 A7 3E 88 2D FB 55 6A EB 68
 1E 8F B0 5C C5 29 E9 BF B0 D8 DF 2B 04 9F 83 73
 3C 91 9B 51 D0 76 59 73 FC 4A F9 F7 28 89 E9 02
 04 98 CF 0D 8C 63 19 0F 2B 90 5C 8E 95 2B D0 19
 2B C4 04 84 52 C5 5A 2E 87 3C BD 55 23 15 DE 4B
 1E 4F AB C3 AD C1 75 68 88 A1 E4 0F 74 18 75 7E
 66 7F 16 F3 C8 F4 28 4F C2 86 F4 7E D6 86 DA FA
 7F E5 4D B9 C9 0E 2E F6 8D 0B 44 68 CD CD 0A 85
 DE 29 C9 CC 75 8A B6 3D ED DD BB 09 2F 15 12 7A
 92 D7 04 AA 70 17 52 68 F7 CA 17 3D B8 7E EF C7
 57 AE E6 17 93 D5 C8 47 1A DA C8 49 95 2C A7 0C
 69 B6 AB 37 BF D7 E8 92 24 AB F0 9D 76 AA 81 3B
 BC 50 BB 68 91 F2 2B B6 21 AF 91 73 54 48 E3 6E
 A5 F2 AB 35 91 CE 05 B1 41 70 AD C9 57 9A 26 78
 FA FB 90 D6 28 6C 5F AE 25 85 33 F6 22 8D 41 FE
 5F 0E 98 E9 6E 80 6D 50 C7 1B 20 61 28 F8 B6 17
 50 88 45 2F 5A 7C 5F B2 00 0D 35 D9 D2 E2 86 D2
* End 3031137219 2117144800