* LTspice Encrypted File
* 
* This encrypted file has been supplied by a 3rd
* party vendor that does not wish to publicize
* the technology used to implement this library.
* 
* Permission is granted to use this file for
* simulations but not to reverse engineer its
* contents.
* 
* Begin:
 49 24 E7 26 BB 57 BE 2A BB A0 B8 F9 59 11 C3 4A
 30 EC 1D 71 6E 41 39 9E 92 30 2E C1 EB 6E 0F 2A
 4F 6E C3 B0 76 10 EB E6 20 8E D7 D6 21 71 05 10
 5F 48 DF 1E DE F8 69 E3 20 2B 09 32 E3 9C FC 7A
 96 5B 1A 99 F7 07 94 E5 1F CB 1A 25 D8 0A 4E 2B
 58 FE 82 79 88 20 90 82 E6 BE 3F E8 ED 61 0F 88
 F6 B1 CA 4A 6C D3 BB AA 4D B2 15 14 3B E7 18 7C
 A1 D4 C5 DC D9 88 81 61 DA 28 81 5A D9 32 83 52
 16 B1 4A F5 74 E3 59 3D B5 1E 27 79 70 A7 E2 25
 CA CD 37 2D 8A 1A A9 CD 5A 20 62 68 B6 25 1C 7A
 E4 0C F8 A0 A1 6D 0B DD FC E2 D8 4B 37 48 CB 06
 1C 2E 89 6D 31 7A C9 1A C0 A5 9B 9E 9B EE BE AA
 AA FF 06 CF 86 28 C4 85 6D CE 8E 87 48 00 B4 77
 8C B3 F2 D9 84 D4 76 1F F2 5E B0 A2 B3 5A 14 6F
 C0 12 C4 7E 1F E6 65 AF 61 B2 70 11 D0 1F 9C 44
 61 45 15 15 66 4B 18 A1 EC 78 46 7C 0F 71 91 50
 D2 E4 44 2E 47 6E AE 89 CD 3D 92 3B 29 F5 FD ED
 8A B0 D1 DA 4E 29 8C B0 5C 5D 1B 14 2E 6A 2B 1F
 8E 26 0D 7B 40 8E 5E A7 D3 85 67 35 66 0C BA BB
 62 C1 BF 79 A5 69 42 D3 DD 45 E1 2B 6C 12 A5 22
 2F DB C4 D2 0F 87 2A 08 26 2F AE F9 4A FE E9 5B
 E0 71 F3 AC CC A9 49 F0 62 85 AC 52 37 FB FC DF
 D8 62 AF DE BF B2 73 7A FF 15 11 60 62 09 24 9D
 ED C6 74 F6 CA 3E D5 6D 1E A0 D8 E1 46 4E 17 58
 EB 48 87 45 82 5D 2A 3C E5 A1 C6 B5 53 E3 1E AD
 60 C0 FE FA EE 57 23 07 52 1E DF 02 E4 CA 2F 5B
 2E EE 08 D9 13 6C E8 CD 6B 1F 03 AA 6F 8A E7 14
 37 B1 24 1A 57 76 59 E5 76 05 DE 5B 92 B6 42 B7
 BD C9 85 32 2F 80 14 11 AB A1 EE F1 87 95 DE 70
 45 8C 57 B6 36 AD FC 5A 2A AF 98 10 E5 06 6E 19
 A0 47 63 D4 74 7C 96 09 BD DF CF 85 32 D8 57 76
 D0 C5 65 E4 F7 C7 0E 7A 11 E9 E8 C6 11 74 B8 C7
 2A 2C 3B 51 C0 E7 80 17 28 1C E5 3E 4A F2 10 18
 2D 5D 47 AD 21 28 0C 33 E4 8B 83 7D DF 4A 35 2F
 1E 56 AA 51 51 54 C1 AD 76 12 42 22 C9 8B 04 AE
 E1 F7 E0 5E 45 F4 D4 6C E3 4C 0D CE 71 CD 90 FB
 AF A1 15 59 3B E3 29 08 23 91 00 05 75 4E CF 09
 59 CC F3 F1 25 21 90 1F BE 05 3B 71 53 9C 84 7C
 E1 65 14 52 C1 BB 78 C8 DF ED 58 7D EC 3F AA FE
 CE CC 1D 03 A4 42 44 27 EF 6E 84 52 39 ED 85 B9
 6C B0 55 29 0A 47 87 96 31 89 56 0A 7D 85 38 C3
 A7 61 F5 72 A1 7B 0D 92 0D AD C9 7E B6 33 34 A2
 FE 4D AA DF 2F 9D B2 7E B6 BE B7 80 9B 00 A1 48
 38 74 67 1B 16 7F 2C 33 98 05 3D 32 DE 45 77 69
 3B EB A8 66 B5 F0 F8 10 EA 57 6A 4F 39 32 7E FB
 9E 03 30 D0 66 E5 4C 5A 3E 72 F8 8C 37 FD 97 20
 8E 9E 53 A8 74 55 3C D0 0C FC A4 B1 22 86 36 38
 4F BA 44 AF 16 89 B6 E2 C9 61 F5 F9 19 A8 BA C2
 AD 8E D8 33 85 9F 1E 09 60 89 92 81 7F C9 85 A9
 DD 91 90 5F A0 18 56 70 28 29 52 12 48 CB EA FF
 D3 47 52 95 19 96 00 8E C0 13 6C D7 34 3A E4 E1
 1D BA FA 7D 10 2A 19 50 FC D4 1D 0A 0D 43 31 A5
 52 01 70 BB 9B B3 60 FA A6 9B 76 7B 46 26 CC 88
 AB 86 BA 54 03 44 BB 6A F0 25 F2 3A 00 95 40 14
 55 81 9F 1E 17 17 4F 80 E3 02 4A D5 F4 C0 9A AB
 6B 78 F9 65 20 A8 F8 09 75 42 83 7E 1A 0F 08 3D
 83 C6 23 E7 5B 77 20 AF 26 B4 54 FD 04 2A 2A 69
 A1 FA F7 00 13 D0 B1 29 54 65 07 15 B2 7C E8 4A
 B0 23 10 8B 88 F9 E5 19 29 33 A7 62 98 79 AB 87
 FC CD 3C E2 5C 42 D8 FF 7A 87 7D 7A 35 A7 43 E4
 EC E7 AA E5 EE 8E 1F 6F 45 E4 8B 6B CA 2D 1B 09
 34 4C B2 BB F2 91 03 7C 46 BF BB AB 68 77 F6 EE
 C0 5E BD 88 A1 A0 5D 76 01 40 0A CE 93 BC B0 39
 D6 41 FD 3D BD 6E CA 9C ED 2B D4 E6 81 0C 50 0F
 3B 0E AC 7A 2D 37 EE E2 B2 6E CC 28 52 42 57 A3
 49 F1 D5 85 EB 34 D9 32 29 B2 39 A1 8A 52 E6 26
 B0 37 54 F7 A3 DA 8E E7 53 05 D4 2E 0F 46 DB D2
 48 64 CD E8 4B B1 36 74 89 32 6A 04 B3 36 75 2C
 CD 40 9B B1 24 4E FB D5 4A 00 F9 7A 46 DB 67 AC
 D9 4E D7 53 35 91 A7 5B 76 3B A0 D1 92 4D 25 CA
 EB 61 87 8A 9F DB BC 2A A2 19 6C 5E EE AB AC 16
 1F 62 09 27 0D EB 22 9F DA CD D1 78 DF 3A 31 26
 93 02 0A 68 9A B9 26 97 00 CE 94 10 00 5D 7E 6E
 9C E5 10 A8 20 F7 26 B0 DC 0F E0 CB 5C D0 51 47
 39 55 F2 2A A1 F4 DB 03 4B 7D 98 9C 2B 77 F0 23
 69 7E 07 65 A2 C1 96 AE 21 B0 5F B8 BA 76 11 42
 B1 E8 B3 25 0C 52 11 53 48 AE F1 7C C4 A7 E0 01
 05 63 F0 84 42 D0 EE 5A 4E B3 1F 95 CF 40 4E 13
 1D 40 63 6E 39 76 AF 21 85 A2 05 2A BB E0 5C 0A
 66 AE 0D 70 61 D6 0D 38 85 26 90 A7 7B 85 16 82
 55 81 E6 9D 8A B9 16 83 38 6D D4 24 3C 68 0C F4
 06 6A 9D 04 AE EA 05 B4 6D 8E 4A FD 70 AE 1D C3
 11 E4 41 0A FF 48 ED AC AD A0 7F F1 8C 76 F9 51
 53 4B FC 6E 5F 12 88 F5 B4 16 C4 5D F4 E8 90 2F
 B7 3D CD 6D 10 93 50 74 B3 6A 04 92 9D A5 33 B4
 85 E2 CF B4 82 75 DB 6C D0 BD E0 A2 5B F4 9E B0
 88 99 BA 25 09 FC 2C 86 FB 38 81 5B E4 C5 E2 64
 5E AC 02 FD DD 19 08 FB 76 A6 56 90 7F 63 F0 BF
 85 2D C4 DF 15 49 9E 3D 51 4F 51 99 92 42 86 A1
 B8 72 9C B4 0C AC 2B 68 35 DD 35 BC 78 73 56 17
 48 84 6B 6D 2D 58 17 F8 C7 33 B8 BD 7C 41 BB 28
 E1 0A 0A D8 A5 8F BB EB 4E 1A BF 6A 89 D3 2C 53
 BE 06 5B ED 94 CC 10 4A 24 54 79 28 DD 33 8B 93
 34 14 50 FB 3C CF EB E2 0E 48 15 92 A4 92 58 B0
 30 69 A8 EF 07 D5 33 F8 2B 38 5D 58 9B 39 C6 92
 AB A7 08 FD E7 D1 E7 40 83 F5 63 9A 01 6C 3D 66
 36 74 BD 7C 20 DF B8 E0 8B 3D 71 57 01 DC B7 C2
 2B AF 93 E5 B9 88 66 F4 C2 1C B2 B5 DF 6C B3 98
 FB A9 18 92 C0 2D 7A 22 3D 09 A0 D1 AB 02 4C C5
 F0 1C 28 2F 30 8E 78 97 48 22 05 5B E5 1B B3 BA
 B0 EE 53 E3 5C D1 21 5C 40 C1 4D 50 34 F0 B9 9C
 B8 0B 49 E1 34 96 28 04 67 F6 44 B7 7D 53 36 90
 C9 39 E9 06 1D FD E2 AC 6F 74 A4 00 18 D9 9C B2
 64 3B A2 BA 37 32 FB FB 67 1A B8 F0 63 42 BA 36
 40 4A 67 88 07 59 99 21 31 98 BD 6E 13 51 35 49
 2D 53 F7 25 02 9B F3 13 57 DE C3 37 49 1F 6A 8B
 3A 9A 4E AB 1F A3 13 09 A3 26 B1 07 CA 6E 19 4D
 7B 91 33 4F 10 EC C5 06 88 DB ED 5C C8 A0 FB 67
 4E 03 CA D4 1E DE 3E DD E5 D7 93 23 AA 9E 6A E4
 6B 1C 67 0F 8D B9 52 83 98 22 5D B7 57 15 33 8A
 D6 68 D1 3D 60 19 8C D5 9E E6 8F F2 5B D8 43 DD
 93 F6 CE F3 64 09 E2 95 E0 35 D9 63 8E 1F 30 E3
 4E C1 EE B1 3D 86 D9 F4 4A 90 4E 25 77 22 D2 66
 28 37 88 D3 DF 22 21 A0 2F BF 67 FD 88 3B F0 26
 3B B8 26 BD B8 0F A7 C0 21 44 7D B9 EE 2F 65 2D
 71 C0 00 5E 04 CF FC 0E EF 8B 3A D2 88 A2 A9 18
 5C 22 77 38 8B 93 22 27 08 10 F5 43 BC C0 7A 40
 F9 C2 DC AF F7 D7 37 E8 85 40 AD 74 DD 0A A4 26
 A1 81 25 D1 78 AA EE B0 2E B9 68 2C 2C B2 55 0B
 8E 39 86 2B 70 CB 23 1C EA FA 0E 81 51 E8 1F 12
 FD 92 D0 24 E5 86 6F 83 89 3C 91 EA A8 A1 22 A9
 05 69 EE 47 1D 06 16 7E 52 90 24 44 F7 F2 6C 84
 D4 9F A7 82 5A 96 67 B8 E2 76 A9 95 C7 69 A5 95
 5F D9 2D F4 5C 5A FB 75 B8 B8 EB EC 51 E6 6A A3
 AA 38 81 37 1D C9 E1 69 48 EC 18 C7 35 19 A5 A2
 46 13 5D 1C AE 2C D9 75 A6 94 77 94 CD D8 2A A5
 E5 97 C3 A9 42 75 70 3E FF FF 63 AE 53 8A 45 39
 4C FE A4 62 35 90 84 4B F5 25 DC B0 9A 38 39 20
 FF 2F 5A 8D 00 C0 C2 E0 4A EB A6 30 96 D8 CD 55
 32 FF AE 4F 7A 32 55 8F 95 26 FB 34 C1 E6 E3 13
 15 4E 1F EE AA B3 5E 33 B9 B4 C5 7E ED 59 01 78
 BA 9D 5E 5E 2E 64 D4 8E 44 DA FD B6 EA B8 88 6D
 21 27 DA AE EC 6B 7D B7 E7 F2 F0 54 3F BA 6D 0B
 86 FB 13 67 40 00 A1 8A A3 99 27 9C 7D A4 6C CE
 C7 C9 54 79 2B 95 A0 8B CF 9B 6C EF 5F D2 41 B3
 6D BD 58 8D 41 19 62 58 8B 7D 1D 76 19 D4 22 01
 15 26 A5 F4 29 88 C6 B7 01 37 47 58 ED B5 33 7D
 48 56 B6 26 89 2B EF E5 D4 49 97 8A E0 90 8E 69
 F5 61 48 AF 7B 28 97 89 B0 B7 01 0B 5B 9A 18 BC
 5F F1 65 7F 87 40 53 68 9E 9C 78 39 46 3E 97 DD
 22 51 5D 27 4F 72 C4 36 DA 14 32 DA 27 E8 AA E6
 BB EE D4 7B 37 9A AB A4 2C CD 73 DD 3D 4A 83 BE
 9E 28 23 81 5E B7 F7 F2 53 6E A4 72 1A 51 A9 E5
 32 18 4A 32 3F 9D 92 C8 DB 9C 27 C8 A1 99 48 15
 EF 69 E7 85 FC BB F5 EF 08 B8 2C D5 82 2F BF 79
 71 3A 9A 36 56 1B 51 A6 FF 00 15 5C 87 0F 29 64
 16 18 9F E9 0D 6E BB 70 B0 14 A6 34 08 8B 8F 94
 0D 1C C2 D8 58 8E 1D 03 CB 41 9F B6 B0 5B D3 D9
 B8 05 1E 10 3A D4 6B 41 5A F7 8B 27 A4 5D 2C 48
 7B FE 68 87 22 BD 4F E0 82 4E 61 42 6F 74 59 14
 B4 80 CE ED AC 59 48 D0 76 7C A7 BB 3F 4C 88 01
 4A 76 0D A0 9B F7 11 67 28 7B 38 0E 4F B6 84 F5
 22 AA DB 22 81 3A 0E 68 D0 AF 0A BF 95 48 47 B5
 65 90 4D E1 DB CE 61 24 56 33 3F A6 5E D7 DD C3
 36 24 13 74 BD 11 4A 35 8B DB 91 AD 57 2F 41 C1
 C0 26 B7 DF E0 28 AF 6B 8E 4B 1A 20 46 A4 E6 7B
 3B 9C 17 C8 AC 07 76 7E 4C 84 B3 CF 11 17 E7 91
 7C 79 DD 30 F2 1A 26 4D FF F6 44 89 C1 8E 1C 69
 31 A0 14 6B C3 B3 27 8B 10 B5 8D 7E B2 60 88 C7
 3B 19 27 A7 CB 50 D8 29 CA 70 A2 FA 8C 9B A0 45
 FE 9C 46 34 59 52 A4 1E 67 40 AD 1C 2D 07 6F D6
 9F 02 A5 84 C6 86 C8 9D 15 E6 81 CF 13 02 DC 57
 41 C8 08 03 8A F4 C2 99 9C 7C 4D 41 A1 1F DD F4
 3D 28 09 1C C3 A1 22 4E FC F7 6A B3 AF 1E 86 8A
 6A EC FF ED DA 25 E4 33 6C A0 27 48 03 8D 00 AC
 2A 69 60 FC 91 B5 12 0F AC E3 88 32 10 68 DF DC
 58 1F 8D C4 56 EF 27 ED 6F E9 29 38 EE 7B 72 16
 7F 7C 48 EC 29 AE F7 13 E1 8A 31 EC 6E BF E8 E9
 EE 51 83 08 20 0F 40 F1 F2 67 DF F2 CB A8 80 96
 F6 7F 6D 02 97 A4 53 FB 0C 56 94 62 D6 18 16 AE
 D1 89 13 46 F4 A7 EF 43 96 B7 76 78 79 22 C4 34
 47 9A 85 32 C0 E9 48 AB 2F BA 96 E3 31 F3 70 79
 5E BB BB A7 C2 53 F9 8C 87 B0 E5 67 F8 F7 5E AB
 A3 C2 65 41 B7 D9 8D 94 57 32 37 36 E2 1B 14 DB
 D2 12 8C 00 E1 79 62 38 39 92 07 77 31 B0 D4 DD
 CB C9 82 F3 5F 68 7B 5E E7 86 BE E8 34 A4 FA BE
 B2 D1 6E 43 7C B1 86 86 49 5C 45 A8 28 06 0F 7A
 C4 82 B7 6A E8 8B AE BE 5E B1 80 98 DA 49 71 3D
 34 65 23 62 BF 7A F7 95 A1 EB 5B 6D 21 CB 5E 1C
 17 9E 8A D1 C7 3A 41 98 A2 A5 E5 C0 90 C1 2E 3B
 99 E7 9B 4E EC 21 15 F5 07 78 5A 9B 50 AF 56 AA
 81 31 AA 51 93 F4 6B 4C 78 73 05 2D E3 C1 F3 3B
 E0 3D 07 AD 83 73 EE 10 44 0F DF A4 1F 6A 3C B3
 7E 4E 17 7D 21 D1 D3 8A 59 59 EC E6 65 86 73 3C
 9B 4C DA 23 62 95 89 28 57 F3 62 D4 09 84 AC 10
 C2 3F E7 09 5D 56 DD C4 8A 43 23 5A 17 33 B4 57
 4B 6A C2 5A 69 22 C9 62 2C 4F 88 B3 70 07 A9 99
 51 AD 15 48 F3 6B FC DE A2 22 D5 E4 F0 49 D7 D0
 FF 22 38 AD C0 14 A6 AD 1E AB D6 B8 7E 8C 51 C5
 00 4F 07 A1 D7 C3 44 75 34 A0 00 0F 54 8F 5F AF
 9C 02 06 A4 E5 8D 5D 21 A3 B5 3A 81 70 E2 55 62
 6D 1D 15 7E 6F DA 90 7C 70 46 E4 B9 8C E2 C8 68
* End 1016191557 1146473710