* LTspice Encrypted File
* 
* This encrypted file has been supplied by a 3rd
* party vendor that does not wish to publicize
* the technology used to implement this library.
* 
* Permission is granted to use this file for
* simulations but not to reverse engineer its
* contents.
* 
* Begin:
 A3 46 CC C0 85 1F DF DF 7C 43 54 8B 13 A6 7C 0E
 C6 6D A6 F8 61 E7 A8 51 EF F1 1F E9 D3 49 7E 6B
 92 58 1B F9 A2 1F FF 9E EF 85 2B CF 26 3B E3 6E
 79 88 E8 3B 59 2E 12 76 3C BA 2B 9F 78 03 2D EC
 B0 7A 75 64 17 04 2A 81 D3 33 69 83 36 0B B8 E2
 B0 FA BF 1C 9C B0 8B 12 07 18 11 86 54 55 6F 0F
 3B AE C1 80 7B 7B 9C 33 96 39 0C 0E C6 C4 F5 FD
 98 A0 2A 4B 67 72 BB BD CB 02 F1 D0 B5 B0 26 B3
 1C EA 78 3D 46 CD 10 ED 0C CE 95 95 5F 22 4E 35
 4D 1E 56 AC 95 CF CF F4 3C E2 BD F8 68 CC AE A2
 67 02 E5 3F 55 D1 36 DC A7 39 D9 55 0F 6D 0D 99
 6F 66 18 5B ED 6C F3 9E 9B DD 76 04 27 DE B4 72
 C2 3F 5C 77 87 03 79 3D 9E A5 BF 6B 39 C0 88 B7
 C1 74 53 4F 74 97 33 21 4B B2 1F BE 9A 37 1E 23
 1B 44 06 B1 74 FF 52 7E 79 29 44 64 A8 9A 96 2A
 61 76 5E B1 69 63 19 3A 55 93 34 CF 71 11 F9 DA
 5A BB 83 38 12 E2 4A 79 35 55 2F 30 73 3E D6 65
 19 31 77 BE 19 F3 0C 81 76 EE AE 71 4E FE 55 A8
 E5 C5 A4 96 50 84 7C C3 6B 92 A6 7D 6A 54 FA 77
 12 DC 88 9F 79 DD D0 97 E8 7C E7 3F CD 5F 01 B8
 C6 94 EF 1E 95 E4 80 A8 4B 0A 31 BC 78 AB 07 25
 EA 0C 32 9A 53 CB 6C 8F B3 79 B5 63 3A 37 8A 95
 9B CC 7D 33 73 B1 97 E1 25 32 C9 47 C2 EB 75 32
 B1 67 7E 18 68 1C 93 A3 0A 95 C5 AB C1 D1 71 C0
 19 7D 95 EF 45 B8 05 05 43 BF B1 64 8F 6F A3 43
 44 7A 1F 46 18 F5 DA 53 EC C0 EA B4 23 73 FC DC
 6F 42 5C 3C 49 6E 45 8E 24 A8 9A E8 43 99 E2 8D
 71 59 9D 50 DE 5A 13 88 43 75 0C 8F 86 99 F7 3E
 B9 B0 25 0F C4 13 B4 8C 77 F1 A0 CB E6 32 82 8E
 32 69 59 0B F1 13 0F 5A 1D B0 68 7C F1 D8 DF 96
 DF EE 46 4D 2D 3D 71 3E 06 AA EC D5 17 C8 CA C3
 4D C9 3E D8 5E BC 39 15 14 0E 3B AB 08 95 1F CB
 3D 31 EC 13 6D 27 DC D8 A3 19 E2 43 D5 D9 BB 5F
 BE F7 17 8B 7A E6 F6 10 0D A3 2C DA CC A5 D6 F9
 80 27 94 55 B0 3B AE 5E 28 EE 61 60 4A E7 A5 CE
 59 1A 86 0F E5 41 80 8E 1B 19 33 0E D4 1F 68 38
 C1 DA 2F A3 90 54 7A A5 DA AB FE 9E E3 9F D2 93
 BA B6 C1 E8 3F 75 67 86 84 17 65 54 7A 1F 2E C1
 90 42 62 61 2C A3 DE 8A A4 C3 9A 7D 7F BA 69 21
 B7 C8 5B 2B 71 16 F1 01 71 0A C5 15 A4 6A 8A 44
 AA 69 00 F3 71 CF 2B 6C 34 AD B9 10 18 45 DA 5D
 B8 3E E6 93 53 C7 5D AE 42 31 E0 A7 8C C3 3C 24
 9C 33 67 CD 5C C4 C8 93 14 79 A3 35 A9 FC E9 D7
 A2 AF D1 DF 27 46 FF 11 60 0B 22 3A 60 B7 35 66
 B6 62 14 E5 DF B6 27 EE 4B 94 18 71 DD A8 ED 29
 05 47 32 31 AD 06 1D 1D B9 B2 44 40 39 38 96 1C
 0E 04 93 31 35 96 0D BB 15 6E C2 12 70 7D 51 88
 C2 AC 72 AE 41 CD F3 29 EF 73 F2 27 31 17 68 7A
 DB 88 AE AE 02 40 8B 65 7E DD 77 06 89 98 99 EB
 14 33 16 37 A2 D0 8A 1E 75 FA 16 17 B1 23 EC F3
 63 2B 3A F1 E6 A4 B1 E2 0E 56 73 11 58 80 07 4F
 EC 81 EA 39 74 1B BB AE B2 DC 62 5C FD 01 D9 25
 AE 15 22 D5 20 1A 8D 07 A7 E7 6F 43 B5 F6 8A BA
 6B 30 1B A1 89 1D 89 E6 58 47 54 26 84 F3 B0 B0
 AE F2 D6 71 DA 3D 02 EB D4 9F E3 7F 50 CA 27 F7
 06 2F D3 74 30 BB A0 29 6B 87 70 32 9A 8B B8 50
 5F BE 5E D5 25 B5 7F 1F 1A 1C 10 09 10 EB 2C FA
 3B 27 15 3E 69 83 E7 FD DD 58 C1 6E B1 02 7D C2
 E0 17 9D EF AE F3 F0 8F C1 28 CC 7F 09 BE 90 6A
 FD ED 49 71 FA 32 4A 85 07 71 7F 51 05 C5 5D EA
 61 32 DE 62 7E F0 EC 9C E7 39 E2 3C 60 17 BF 3E
 3F 1B 4D 78 B3 5B 1D 89 40 14 3F 22 97 C3 69 DA
 11 1B 8F F0 AD 4E 5C 43 C6 13 90 70 B6 47 FA 8A
 C9 92 B6 B3 90 56 44 F3 0A C8 4B C3 39 A8 29 86
 50 8B E4 93 57 38 F2 87 0D C4 E1 E9 A7 74 4A 36
 B1 20 C1 12 FB 08 95 54 9B B3 75 1F 3D 8E 21 2B
 0D CD 4C 04 A7 33 E0 99 62 61 E7 A4 E8 DA B9 81
 BF F0 0C 9D 1C 8F FD DB 83 AF 83 1A 9D 98 A6 CF
 7C 93 45 F1 DD C8 F8 B4 D3 2C 6F 2F F6 98 07 B8
 66 5A 3B FC 0A 95 75 08 49 40 49 32 9A 66 51 4C
 5F F4 64 EC F8 63 8F 7B E0 DA 65 8F 8E 63 BF 67
 9B 95 E8 F4 11 34 2D 8E 4C 75 2B 71 6C F4 F3 0E
 37 08 7B C9 CA 30 4E 7E 77 22 26 D4 2E 27 AD 87
 55 B0 36 4E E1 62 BE A5 71 41 8E 35 A8 A3 09 96
 89 8D 70 D3 75 5E 67 59 0A AD 57 13 7A 50 07 1F
 58 2A ED 78 5B 22 84 2B 0D 94 39 F5 42 FE 06 E1
 8F C2 11 F0 F8 80 31 F3 BC 6A F3 3B 9C 54 F9 3F
 9C 99 4E 99 48 78 B6 3D 4C CF 68 A8 F5 C6 C0 06
 B6 FF B5 34 E4 80 C1 B8 A2 02 6A B6 AE 00 8F 0A
 50 94 08 D5 B4 23 80 BE 50 3E 94 BF C4 3C BB 85
 48 B3 E2 9F 3A 5D 56 CF BA 44 F8 DB 6D E1 CE 10
 B6 D7 5C 09 8D C7 38 FD 37 2F BD 4D 55 96 49 6B
 78 FE D6 DF E5 D9 E5 CE 39 7D 96 8E E2 22 46 E7
 35 D1 52 73 9C 46 64 85 A9 2B B2 0E 8F 90 A6 93
 EA C0 1A 7A 1F 7E 50 EB 73 ED 77 31 26 9A D5 03
 7E A0 E4 F7 87 F6 6B BB DE F4 90 B4 E8 34 7B 35
 11 51 5C 17 C6 81 1C 38 EE 76 23 08 EB 50 32 C4
 3D C3 FE 30 3F D2 16 B1 F7 23 3A 19 B3 FF E3 6D
 DD AA 05 84 35 75 52 E2 98 02 9F 36 4F FC 71 A1
 C4 BB DC 64 4E C2 51 F2 0F 57 04 85 11 D9 DE CF
 E4 CA 68 9F 7F D0 2B E1 B6 27 71 B4 C6 F9 CB 8C
 A4 74 39 3D C5 F9 2A 86 63 20 08 D1 9F DC 1A BB
 A0 5C 30 D9 E9 4B 60 8B 87 CA 39 81 F4 84 40 58
 D0 45 32 3E 39 64 27 3A 87 5B 1F BE AF 00 A7 73
 75 65 FA B7 68 14 B1 07 88 2E 66 2F 21 A1 7C 5C
 F0 42 1A 46 48 15 ED F1 F6 34 9F 6D 6A 95 52 DF
 F2 F5 C3 D2 73 F9 65 48 44 96 97 E6 3A AA A8 A6
 25 CE 09 AD 32 B4 F8 A8 DD 9F 90 C2 66 5C 0B DC
 1E 11 1C 09 F9 95 25 67 AA 4E F4 AD 3B F8 D8 B3
 EA 5E 5C DC F6 1F 87 59 BC F4 42 D2 0C B7 8C CC
 BA 1A C1 17 51 64 C2 8B C5 B4 E1 EC 05 D6 D3 17
 42 E0 99 60 C2 48 CB B8 D9 07 92 B7 9A 91 C5 C8
 9D 3D FD D5 CF 47 24 AA 00 BD B4 E7 73 B4 CB 16
 BE 50 5C D1 97 A8 6E A3 E7 8D B5 E8 0F 56 71 90
 78 AE DB AC 9E B1 66 6A 09 DB 3D D9 65 9C F6 F7
 75 0B D2 1B CE 3E C7 6B 76 30 C0 88 06 CD CD F1
 5A B4 CC B5 A1 EA 07 26 6C FE 13 2B 4A 9D A9 01
 FE 6A A0 A5 B5 BB F7 19 4B 72 7B 39 58 F2 AF E7
 A0 15 B6 43 24 CF 1F 9E BD 69 04 32 31 AF 83 D0
 14 9D 61 12 B1 4B 33 12 CA 0A 20 26 F3 17 0B F7
 F5 72 EB 3B B6 34 0C 07 7D 19 CA AD 49 94 67 B0
 F5 10 4A AE EB DC CC 63 05 BE 43 4D 18 B6 9B 1B
 C8 65 CB 48 10 74 21 0C 84 A8 1D D0 91 97 6F D2
 7E 08 A7 30 77 C5 42 C6 5B 7D 47 95 CE 7D 98 4A
 03 F5 3F D1 E7 47 21 E5 E3 E9 D9 40 B6 84 22 31
 B4 45 81 9E 6A 8C 85 4B 6B 6E B0 7B DB DB 2A 20
 14 05 6F DC 39 55 83 5A 84 81 2C 74 66 0B E9 B7
 59 78 37 D5 0B 06 A7 CF 17 22 E4 6D D8 26 68 97
 C0 2C 83 40 46 33 91 19 6A 0C 3A FC DC ED B5 74
 00 58 0F E1 68 D6 AB 06 DE 67 66 14 31 8A 14 9E
 0D 9F AF 20 4E 40 14 BC 47 28 FF 76 E7 37 9F 7E
 CD 1B F1 9F A0 5F 47 0B C0 E8 81 65 68 CB CB 64
 0A 4B 22 18 E4 F4 A0 43 CB 87 74 71 C5 CA 29 21
 7F 61 66 7F 89 8D AC 7E 30 C8 EC 06 2F 4A 4C 2E
 72 91 D2 C3 60 FD EF 90 03 1F 9A 93 A9 55 95 77
 3C E3 32 48 A6 B6 9D 4D D2 73 85 DF 82 E1 66 97
 21 D6 7A 45 34 3F 98 E9 ED 03 99 6D 96 6A CE F8
 89 E4 E8 50 54 59 D8 10 45 7F 12 D2 C4 16 D8 2C
 02 45 BE 3F A9 BE 06 D8 26 73 F5 29 97 D2 99 F8
 30 CA BB 06 49 D2 7D 2A B2 71 8E 79 CB 65 47 AB
 C3 B5 93 36 6F BF 9F DE D8 47 52 31 01 01 18 DC
 06 1D 67 34 75 F0 57 96 13 2A 8C E4 55 19 C5 75
 B6 D5 51 71 6B 8B 31 41 FC 3E 48 8A DE DB 23 C5
 E3 DC D8 C2 5C 9E D7 14 8F 94 D9 CA 2E D2 E9 D0
 5B FC 17 E6 23 08 DE 46 39 78 5F D8 6B 85 FC C1
 75 7F 6E 3E DF 30 A9 3A 93 8B C2 9D FD FC 01 67
 81 3D 06 8F 83 66 6B 9E FF FA B6 FA 9E C4 CD A0
 D1 BC 76 F3 3B D8 38 9B 7F 40 A3 0F AF 01 26 42
 ED C9 9E 3A BE EE 86 66 A3 07 FB B4 DF 6D 89 DC
 31 3C B2 F5 22 47 D1 AF BD 26 54 A1 CA AD 15 B8
 8B BF 5F 02 94 E5 A2 27 76 6F 92 9D 8A B8 ED 10
 7A 4D A6 25 CC 4F 52 31 8D F4 AF 7F 90 23 4F C8
 55 C3 5D 48 A7 04 9B B4 EE D0 36 D3 0D 65 DB EC
 10 CD 25 91 8F 6C 08 0D 63 38 2B 2E A5 C5 77 DE
 72 65 72 35 08 1E BF 69 D6 53 4A 5F 0F 9E 5D B6
 F6 A7 8E D2 B5 C7 1A 80 38 8D 4F E6 55 E3 6E 66
 0B B8 33 B3 17 CF B4 F6 90 BB 54 8B 57 04 30 16
 FD 58 8E B7 E6 66 F3 BA A3 DF 65 45 06 38 BD A0
 35 DD 7F 6A 1E 36 15 7F E9 9F 83 F2 48 AE 98 3F
 3D D7 F4 C8 06 C2 D2 D5 A8 77 C3 95 1F EF E5 7C
 14 4E D5 DB 83 A4 A6 0C C1 7E 29 B0 7A 74 04 23
 B4 FB 98 0E E9 DF 35 C3 C6 C8 56 89 2F 4A B3 07
 51 46 6B D4 42 0C 07 5E D9 7C 2C D0 8A F7 6F 88
 C0 24 84 44 93 7F 88 D1 AB 02 18 D5 D3 ED 18 56
 05 0C F7 0E 52 35 A3 46 3A 6F 22 4F 08 BE B5 94
 BA 74 EE 62 A5 80 B7 7C 34 0B 0B 57 A2 BF FC 5E
 3D 41 36 DB CD 16 12 F7 C2 4D 77 FB 00 22 97 71
 D3 C0 78 44 72 47 81 F8 48 7F 98 A2 0A 76 50 EC
 97 BA EC 9F 4B 05 45 18 16 02 FC E3 E1 FB B4 4B
 87 F4 87 C2 BC 3A 06 D2 43 6B 87 A6 7F 2C 5A 74
 B8 EF A9 CA 27 19 0F B2 D3 1A 0F F3 48 F8 CB CB
 A3 8F 6E 46 7A 5D CE ED 7E 14 2D 58 A3 EF 74 2D
 52 18 45 69 96 29 04 31 8A B7 FF 69 6B A1 93 20
 52 66 42 96 27 20 95 C3 4F B0 35 DD F4 33 3D C4
 B3 C1 B0 F1 37 C4 7E F6 A8 3A 61 E0 1D 98 37 F6
 07 7B 4B F0 AB E6 B5 D5 1B 16 AB D7 22 2F D5 98
 2A D9 D0 C8 17 F4 0B 96 1C AA 19 76 DE 39 0C E9
 C2 51 F0 07 70 35 4F A1 8F 29 40 FF 2B C0 20 BB
 BF D0 77 C6 49 BB B1 50 28 94 70 52 BF 55 32 B2
 4B 00 E3 84 64 76 F6 15 62 DC 0F 84 74 E4 1A CF
 E3 9E 92 C2 D8 7B 6B 91 98 D3 D1 E2 1F 34 FD 77
 C3 9B 80 DD 1A 63 DC A3 AB 6A FF FB CC D2 C2 23
 6A 71 AB F7 81 6C F1 1C 6A 29 0F 62 FF 75 F6 FA
 4F F7 AB 71 F0 8C 59 DB 32 BE 47 59 15 11 1E 39
 CF 34 E4 C2 17 58 77 9B 81 46 6C 4B B8 A6 A7 7C
 AD DE 72 D6 06 95 52 2E DF A3 06 57 05 B2 41 97
 4D 95 63 24 8E 3B C4 22 53 81 77 A3 17 86 7C AC
 10 07 AE 7F 16 6A BB F5 80 84 83 57 C6 3F FE 7B
 B8 7A 61 94 94 7F 5B 39 55 55 3F D3 FB B4 80 E0
 97 1C E8 77 24 33 0B 5D 5E A9 1E 89 9B E3 A2 0B
 32 A4 46 9B 04 94 DD FE 1A A8 A0 D6 21 0B E4 D3
 E3 7D 9B FD F1 20 53 B8 FD EA F9 11 3B 8D 7B D1
 E1 0E D6 50 4C 46 F5 D8 7D 26 59 74 A3 67 32 1A
 2A EC 15 DC 69 4A BA 7A 94 6D C6 EB D9 90 B1 C1
 D9 2A 77 72 3A FB E4 30 AE 87 6F 35 3A CA E1 87
 2A 43 7E 10 73 D6 7B 80 13 55 AA AB 3A 2E FC C5
 99 F6 5E 6E 4C 40 AA 9F 5A BB CC 6E 85 4C AC C8
 3E 41 FB 56 B0 64 5F 23 57 85 E7 E5 0E 2F 06 93
 27 7E 32 03 12 8F CE B0 F1 B9 13 76 70 D3 38 F1
 A9 A5 56 B3 1E 6A A4 0A 33 D7 71 66 E1 49 FA 4F
 8C 5F 30 27 78 BE 89 EA 76 7D D4 60 EB 82 B3 74
 F9 70 12 90 5A 25 EA F2 D7 30 28 D3 DC 14 80 8E
 B0 46 93 81 37 12 76 B8 23 F6 AA F4 C6 39 52 5A
 33 98 4C 96 65 F4 8F 05 63 DD 59 AD 1A C4 D2 BC
 E8 E7 D8 E9 CB BB D9 C2 AC 18 93 01 36 A5 ED C7
 98 22 17 AD B9 0B 17 63 BB 30 8E B1 BB 43 1C 96
 35 0A C3 41 22 24 4D DB 94 37 2A AE 9B 81 5D 5F
 B8 4E C4 AF BB EF 4D 03 EF FF A8 97 D6 42 70 6E
 A8 CF F8 F9 BD E7 0A 12 9F 57 23 F4 FC AF 2E A3
 E3 ED 6B EC 2F DB 2F 76 38 C2 0B 9A 76 59 CD 35
 C2 A7 D3 8D D0 4C 36 A2 32 BE CA 51 3D 26 3D 2C
 40 16 3E 47 C1 FD 2B 2D B9 15 2B 6E C4 C7 29 FF
 11 CB 4B AB 53 0A 2B F1 2D 6C 2E 68 42 7A 31 FE
 39 23 BE 52 84 E0 30 A4 16 B8 D2 4F CD C1 C0 B5
 C7 FD 14 4C F3 C5 BE 9C 74 0E 70 58 7A 5F 4A D0
 39 BF 3B 23 92 CA 69 E9 F5 2B 64 62 DC 8D 1D C5
 10 51 54 51 5A CB B6 A3 FC 9E 95 B2 65 1B 9C B6
 66 9C 06 34 7B 90 A9 17 98 F2 B7 24 87 70 D1 6A
 2C C2 C3 43 37 76 3E 68 2B 94 3D 0A 33 06 31 40
 A8 0D C5 DA F9 1A 60 D5 0B D3 92 85 C5 AB C1 51
 18 C7 B7 48 39 93 4B A1 7D 46 26 30 35 FA 81 5B
 3C 99 09 8A 7D 3E AF 2A 74 21 9A F5 88 3D 66 E9
 0A EE 20 2E 0F A2 11 3F D6 F5 C6 07 55 6B 1F 7C
 4E 99 9C 52 13 C1 5D 89 58 C4 9F 81 02 1A 5B CF
 EB 39 B5 10 01 8E A0 19 E8 7D 32 65 66 D2 60 0A
 81 65 9E D8 01 89 56 15 61 47 1F 42 A6 57 11 17
 B8 BC A4 56 CE CC EA 39 1F 70 C6 14 9A DB 85 2B
 54 9A AF C9 6F 62 27 AF 7B 6E DA DA 7B 2E BF 1F
 CD 2C C8 6E 79 F8 18 DC 8C 87 4D 7E 49 99 92 EC
 B2 C3 C0 DC 18 F2 D0 55 9C DD F3 3A 3A 1A 67 4A
 4D 8D 22 36 EB 69 94 74 E6 CE D9 D7 17 23 7A 95
 42 4E A5 CE 6D 0E 29 66 C1 9A 6B 6F 59 D4 88 C3
 53 1A F1 57 3A CF CA 55 4B 54 82 ED 4E 81 CA F5
 45 2E EB 71 1C 9B 80 0E 0C C3 79 C6 50 85 41 83
 A4 46 E2 FD A1 1D 2A 6D 0B 24 B9 64 A4 0D 97 AA
 CC 8D DC BA 14 B7 33 0F 7C 5C F1 DB 75 F5 6F 6E
 5A 2A 86 D8 79 13 D4 9A C9 6D 3B 90 4E 88 9E FE
 4F 75 1C 19 EA AF E1 5A 17 E9 AA A0 0B B1 95 09
 62 5F CD AD 16 37 59 78 E6 A9 2D F8 3A D0 A9 8D
 7A 3E 18 98 72 DD E2 C7 39 F5 57 04 36 9A D5 1C
 7D 71 F0 77 76 C9 39 21 30 FC 7E 50 47 67 F3 07
 03 95 A9 A0 74 F8 83 32 76 53 29 C6 36 E9 06 1F
 C8 D9 F3 60 F2 6E 93 D3 9B A2 F2 83 08 B2 EE D6
 41 45 70 DB D3 0D A7 C7 81 9B D8 9D E3 89 77 75
 90 F6 71 EF 14 E7 6C 77 D9 5B 0C D2 37 83 F9 F0
 4A 79 51 24 E3 D8 A9 D0 D3 02 03 B3 66 7F 9F EB
 B4 32 DB 3C 2D A5 D0 A4 A0 1C 42 49 DA 57 EE DD
 1B 27 33 D7 64 D8 E4 87 B4 27 1E BA 4C 8E 16 ED
 6D 3B 32 54 78 5D 90 10 95 23 A0 2A 0E C1 EF BD
 C8 C2 A1 54 9D 83 B1 21 6F 87 93 9F 7B BE 12 0C
 47 2D 8E 5E 5D 71 F6 3F FA 05 3A C1 F8 22 18 57
 10 BE 35 03 D1 F3 C1 A2 AF DF 4D B9 1C 6A A0 39
 6A 71 73 A1 1B EA B4 2E 57 9B 5B C3 FD BA DA 24
 0A 4E BA 79 EF AB 03 16 6C F6 31 39 81 D6 74 84
 B0 27 D1 D7 04 B8 73 63 82 47 2E F6 46 07 9F F5
 17 8B D7 81 93 A1 7B 4A E5 84 D7 D5 3C 15 9C 52
 D9 4C D8 3E 59 43 96 A0 1D 81 C9 A4 47 7A D4 BE
 3C 80 50 DD 40 DB 02 72 8C FD B3 0A BF 82 75 8E
 E0 6C 17 E3 D9 E2 A9 80 BD AE 1F 5E AE CA C0 42
 2B D1 A2 AE AF EA 06 CB 67 E5 E2 46 BA CA 31 06
 78 04 FF 95 01 F7 49 5A 41 F5 21 FF 49 48 36 46
 B8 AB 75 DA 16 53 AF 15 0A 5C 72 4D 64 85 E8 0E
 3D 35 0A D3 A5 C9 E3 C8 36 60 BA 87 F1 D4 9D 9E
 AB AD 58 EB 86 38 4A 99 66 7A F6 AC 69 EA 85 67
 39 EE 0F 32 9A 1C F8 D5 4B E3 AD A5 E0 92 64 80
 2D 49 69 15 6E DB B5 7C F3 0C 08 4F BB 85 E3 FE
 02 D4 D8 0C 5E 34 CC 9C 29 CB 41 46 DC AB 3E 76
 75 07 7F C7 F6 43 CE 52 DA EC D1 D9 53 46 3F 33
 CA 40 0E BC 80 4B 1E 84 48 6C 78 3B CB 37 EB A4
 38 61 5E 19 7D 38 28 24 67 64 F8 33 3F 90 8E 7A
 8E 0A AF 8F B3 37 02 08 93 4A 35 65 C9 01 98 81
 E5 C5 0D AE EB AA 08 22 3C F1 B5 28 FD 77 55 A4
 9D FD C2 8F 50 90 B4 87 81 0E 05 9A 86 B7 DE 01
 B0 9B F4 E3 9D 2B DD 07 52 FE 19 8E 69 6A 59 5B
 72 71 C5 5D 5A 64 03 04 23 9F 5D 91 AF D1 F4 F1
 E7 5E 7E C4 8E E6 DF 74 9E AA 6C E3 49 20 76 D1
 13 21 3C 42 E2 CD 9B C6 D9 50 CC DA FA 2E 31 ED
 6D 52 9B 20 5C 1A 4F 43 A9 A6 F9 1C 4C 7E 4E F1
 D4 9A A7 82 70 94 D0 BD 93 1E CB 7C 4B BA 27 F1
 D2 FC 19 EF 91 0D 52 5C 11 1F 0F 0A 8E BF 7A 80
 B7 65 0A 43 67 49 79 19 15 12 04 35 7B CE 9F A6
 E5 85 2C 06 2D F8 89 16 F9 E5 DF 29 1F 16 CB AB
 E6 7F 35 20 54 BA 1F 45 6E D9 42 4A E0 92 FA BD
 C5 B2 B5 A7 25 CF 9B 32 CF 03 06 8D 3D 7A C1 34
 D1 F0 3A B7 82 9F B7 B2 73 67 94 9E 2B 5C 91 A7
 BD F2 1A 31 2F 20 D9 93 D0 57 72 B0 F7 81 49 85
* End 1111828498 1820301082