* LTspice Encrypted File
* 
* This encrypted file has been supplied by a 3rd
* party vendor that does not wish to publicize
* the technology used to implement this library.
* 
* Permission is granted to use this file for
* simulations but not to reverse engineer its
* contents.
* 
* Begin:
 EE 73 C7 B7 93 D9 A2 1B 62 F5 54 8A D3 B8 C0 C7
 95 29 0D 34 64 79 B2 08 84 86 13 57 72 20 38 F6
 3E EF 93 E3 F6 79 2F 18 A9 B2 14 99 BD 41 6C 1A
 06 12 2E 78 79 08 42 F6 73 55 92 74 0D 08 87 8F
 5F 5F CD 72 22 0E DD A5 B5 BC 47 C9 DB 91 EC FE
 F5 2D 6D 61 99 1E F5 66 73 30 A7 08 9F 8B 8E 8B
 A3 19 CC F7 09 66 A9 17 25 76 43 DD 08 91 E5 9E
 6E 0D 76 9C 2E 4A 21 76 69 B1 4D 24 7C 57 F8 9B
 A9 8E 46 8E 0C 6E B4 89 15 DC 8B CD 9E D1 82 B8
 25 62 11 5A 7C C9 C1 8A 9F A4 C8 F7 FF 9A 22 4F
 8E F5 1D C6 65 E3 B1 31 FC 16 BF 71 47 2A B7 1A
 2D 6D 50 94 E7 B2 C1 D8 D4 7A 91 14 69 AB 8B E8
 65 7E AA FA 52 F5 13 66 D7 41 99 18 02 45 CF 3E
 5A 89 50 C7 EE BD 00 FB 5D 43 D3 B3 32 31 02 39
 5B 3E 14 5B F7 01 7D 43 01 D4 A9 67 0A 1B 34 16
 59 C7 AE 97 97 F7 CA B2 B7 31 F6 09 1A 00 93 0E
 24 62 6A F1 5C 8D 7A F1 85 5C 82 BF EE 70 F0 06
 39 F6 22 46 4D B6 EC 3D 7F 9A 14 9A 95 C4 F6 82
 07 71 53 99 87 75 1E 94 F2 61 00 B1 4C B3 0D 3D
 A3 C4 45 E8 29 2E DE F9 80 04 CA 25 67 35 C9 6E
 09 7E EC 06 4A 9E 9B D3 7E 71 BD 1E A9 83 3A 85
 BD 6C 14 56 22 25 C0 27 F9 FE 49 79 A6 62 8A 27
 7F 3F C2 AE F0 AD ED 1A 2C 90 8F 3D 5E FC 51 F4
 10 5B 5B 8A DA 54 9A 06 44 FA 5D EE E2 C2 A4 E6
 FB 84 C6 A9 2A 5A DE 14 97 E1 C7 04 C1 4C 4B 21
 35 A1 BE 9F 7F DB 6C BC 37 D0 FE 68 18 93 9E 16
 BE F2 CC F8 B6 B4 58 44 F7 B2 A7 48 8B 7E 9C 99
 21 DD 19 BD 76 05 DD B6 A6 A6 95 7E 7E 7A 31 CC
 49 5E C2 34 5A 4D E3 43 0E C7 B8 62 63 33 87 C3
 BF A0 80 78 A6 64 23 52 63 18 1F 62 A8 44 92 B7
 1C 47 E9 B4 06 87 9A E0 FA 28 38 7C 6F 2B 8E 8B
 AE 75 BC 0E FE C0 D3 0C D7 68 FD 8D E4 AB 54 47
 0A C2 6A 93 B2 6D 21 F5 F4 FF 04 D6 49 52 BB 06
 FA FD 77 57 31 11 91 C1 0A 46 90 4A D9 5D E8 2D
 BC 0E 86 79 37 A7 70 BE 60 35 69 36 BF 1D 2F B3
 12 3C FD 52 55 3E DF 3C D9 73 A9 04 46 BF 9D 1E
 05 3D 0A 9A 4C F2 B5 BC F2 20 FD B8 59 8F 7F 9A
 3B 37 8B 41 9B 53 2E 92 03 30 F2 9E AF 0B 68 46
 63 84 D1 49 22 F3 E8 28 AA B9 4E 24 28 05 CF 1B
 88 BD 83 85 76 3F CB 6A 41 86 97 88 76 B6 A5 2B
 E0 A5 E4 67 17 81 54 CE 57 5D DB 9F AC 10 F1 FF
 75 A4 F1 51 F4 28 42 2C 14 96 13 A2 22 08 F9 A4
 71 7D 24 B2 D1 3E BE A4 B2 AA C7 E4 56 22 D1 57
 2D 42 F5 7F FF 9B 74 14 44 C9 63 FA 0D F4 79 17
 66 00 0A 60 63 1C 05 FE 78 4A 5D C8 64 F6 E4 AE
 99 BB 7A 0E 3F 65 C1 8F 28 F4 1F FF D1 38 50 05
 CE C8 25 C8 8B 03 B3 28 7B 1B 8D 78 76 83 E2 69
 36 DE 46 B5 AB 94 49 F4 1E 24 EE 4A 50 EC 74 2B
 29 DD EA 41 2C CA 69 12 4E 12 E8 58 9A 6C 2C E4
 10 10 C9 B1 0B E2 62 7F AE DB 86 C1 81 86 A9 46
 73 76 F2 06 03 C8 7B E3 3F E4 C6 44 95 DD 8E 8C
 D2 6E 2A 57 15 D2 18 8B 80 06 20 A8 06 49 3A BB
 D5 0A 0D F2 64 5C 56 5B 8D 65 14 92 B1 97 2D 45
 8A 1C 22 DA 1E AA BE C3 ED E9 ED E9 84 24 35 27
 B8 C2 42 2E 78 E1 5B A5 4C DF 27 40 CB FF 34 A4
 13 F9 C6 A0 39 FD 5C 93 5D CE 62 73 A4 D6 2F 70
 DD 3D 3B 45 2C 45 BA DA 3C 90 E5 A7 2D FA F0 5C
 0A 01 A0 F5 59 88 79 19 FF A0 3B FB B0 B5 7B 3A
 8B 79 5F 7B 7B BB 3B 48 3D 23 E0 8F 71 31 40 3B
 EA 2E 3D 1E 22 A4 69 40 41 12 6E C1 AD 24 27 08
 74 86 08 A4 FF 47 43 EF 35 61 64 F5 7A E5 8D 06
 1D 7F 0B 62 B5 76 48 1D 48 C1 70 11 85 A8 D1 1F
 C1 09 FE E1 F9 40 ED 30 F4 7C 61 C7 E1 57 95 E1
 77 F8 B0 12 DC CF 41 FD 1D 28 F0 FC 77 6B 3E D0
 23 89 A7 EF 44 67 3F B9 AE A6 16 DF C3 CB 5E 66
 C0 A8 C7 75 A6 D5 CE CB 62 F8 E4 8E 2B 24 23 DB
 F3 FE 45 DF CA 3C 85 64 7D E7 75 EE 32 8F D0 F5
 F8 97 1B 66 C7 19 60 95 D2 5A E4 BF 8F 4B 5A AE
 67 6F 2D D5 77 37 ED 46 F8 03 BF 96 AF 1F B6 42
 FC D7 F0 8E 97 9C B5 C2 03 EF D6 50 BB 48 F3 82
 36 4A 7E 37 E7 8E D1 C0 69 CF A1 75 1F CB B3 B5
 04 D9 30 FC A5 40 17 31 50 C7 5E D2 B9 EF 67 FA
 1D 99 5D 0C E6 74 61 C0 58 DB A7 DE 85 37 2B 4D
 0D 1B 4D F6 A0 07 71 C2 BE 7B 70 6D AC B8 FD B0
 E9 86 44 F4 37 EE F8 FD 33 6A 4C 2A 36 A1 6B 77
 86 CB 1D 31 1B 01 89 92 1C 8C 01 81 B2 D6 05 50
 01 E0 6A A5 1D 00 7B 7C 40 5C D5 67 D1 92 10 6E
 0A 90 4A 81 A7 B6 2D 0E C6 A4 B2 FA 1F ED 2E 0A
 FE 80 28 57 04 CB FC 61 6D AE D7 9A EE B3 9D 9C
 C8 56 B0 DF B2 9E AD 63 3C ED 75 1E 18 DA 06 80
 B6 4D B5 16 A1 8B 93 6C 92 30 F7 F3 A3 F4 98 56
 FD 44 8C 4A 92 A8 87 77 86 5B 21 C1 09 C0 89 74
 B8 8D 0E D1 25 61 84 F0 C1 AE 4A CA B8 B7 9A AC
 2C 57 42 9A 66 B7 C5 09 4F 98 6A C7 B8 F1 2F 65
 4C F4 70 62 95 91 E9 25 3E 81 86 05 0E C4 A7 A6
 B5 F0 21 19 BB BF 44 74 26 5E FA F5 28 94 C2 DE
 5D D3 61 6A 9D E4 1C 61 E0 29 5F E5 D6 E9 AE DB
 20 37 35 C9 60 1A 0D 1B 88 B1 82 73 22 8B 95 4A
 3F BE EF EE E5 53 CF A2 F4 07 16 6F 4E F7 2A 91
 60 C0 9F 59 96 32 48 01 BA 56 7F 14 B3 0A BB 54
 8A 04 DA 67 4D 6C 65 4A A6 CF 0A 80 20 C5 E9 5A
 37 EA E4 58 93 4B 44 32 E4 97 CE AC FB 36 FE 32
 7F 50 89 26 06 43 F4 C7 C5 1F FB C4 3B E1 84 64
 76 7E 7F 10 CC 34 B2 6F F4 22 FC 25 B3 E6 60 59
 FA D2 A1 2B 2B CA FE 77 DD 6F A9 D3 7A 47 C6 5F
 F3 E4 C2 FB 5C 28 A1 DA B9 87 07 F5 DC 45 62 AE
 D4 23 8B 15 45 13 28 F7 83 71 36 AC F3 C4 EC D3
 83 0A BE 9E C2 76 25 21 3A 06 E9 C7 1F 45 2B 9F
 C5 42 93 15 A8 62 F5 05 34 93 4D E5 8B 7A 27 16
 E9 87 7D 68 8F 31 B6 B3 56 5D 0B 0B D5 25 6F D0
 53 7E A2 0C 4A 64 10 F6 A3 84 22 FF B4 A7 B2 6C
 EE 41 A6 A6 96 70 F0 96 C9 0B 0F 00 65 30 FD A0
 31 EA BA 37 EF DB 62 41 2F EB 54 DF 35 77 A3 ED
 3C 64 DF A7 88 2A 97 09 EF 66 06 2E AF 96 88 AB
 30 83 3F 0F 5A 44 21 C9 80 78 33 7D 81 04 8F F0
 F1 2E A5 8B 5C DC CA 29 CE 1E 53 38 21 BA 0D 92
 89 20 8B 23 EC 86 E0 F4 91 41 56 C8 CA 1A 7B 4F
 2F C8 4A FF 53 FB 1A F9 26 B2 64 E7 57 0F 83 F5
 48 AE 50 91 43 59 96 1E FF 20 6D 85 C7 AB AB 55
 AB F9 55 83 8B E2 EF F9 F3 A0 97 8D 46 70 8C 81
 91 66 3F 31 3D 5C 2C BA 89 D8 5E FD D4 31 E3 C3
 9F 7B 2C 7C 9C 8A 2F 91 5F EB 9A CE D2 CD 88 EE
 66 8E 95 D0 FC 1E D5 4D 99 C0 04 07 57 B2 00 75
 C5 70 81 67 BF 8D 09 24 19 32 92 EF FA 91 86 15
 DB 22 A8 D8 A8 74 4F C8 D6 65 0F 3C 51 DE 82 95
 D0 6F B5 0F AB 1C D6 52 B5 49 AE B1 6E 74 E2 6E
 0F 81 BB 5A 4C 23 1E D5 53 F7 A4 7C 68 41 0E 66
 F8 6E CD EF BE B6 2C E9 72 D9 02 35 70 95 6A C5
 47 CC 63 27 D5 10 B5 C1 05 5D 80 0A F7 CA 4A 99
 74 F0 0C 7E 12 91 C6 22 DA 07 E8 67 F4 83 61 A0
 8C D4 F3 08 7D 25 50 6D A1 08 EC 73 7E C9 CF 89
 C1 6A 58 1B 32 EB D9 EB E9 B5 9E D9 75 36 4C 23
 50 69 C8 BD 8C 1B BB 5D 79 72 44 AC E6 E0 A6 FE
 04 5B 77 9E 93 6B 85 2A 06 D9 74 AF F0 55 45 8B
 FE E0 6A 13 4D 98 49 F5 9B B7 5B D3 DC 58 CD 09
 32 A3 8A 5A BE B3 A9 E1 39 0F 10 4C 72 97 91 32
 78 65 9F 66 F5 23 2B CF 2B 80 99 A8 9E 2B 9B A0
 DE A6 34 45 42 AE 1D D5 08 A7 6A 61 60 A0 BA 8F
 E0 DD AE A0 AC AF 2B FE 28 C8 78 03 A1 A7 AC 93
 D7 AA 11 79 10 C5 E7 8A B8 C5 8D 88 00 16 65 BD
 9C CD D7 35 61 A3 EC 58 43 83 37 DC C2 0E 5E 11
 D5 2B 79 98 A8 67 E8 10 BD 99 7D 8D 5F 37 9B FB
 CC A4 B8 61 4E 83 EB A9 6E 7E 83 B9 36 51 B1 45
 02 25 49 C4 73 AA 1F E0 3B 83 F4 57 E3 89 0B 0E
 B5 89 2D 6E E0 20 BE B4 5D 93 68 11 B7 08 D2 36
 51 5D 84 E3 39 AE C0 E5 5C 41 B2 EC DC 0F D4 A8
 B8 63 07 24 69 8B EA 9F 6B C8 D3 FE 0E FE F2 CC
 95 53 8D E6 E4 E9 F7 6C 4D 9E 24 AC 77 2D 61 93
 DF 80 63 24 85 8C 0E 54 21 D5 51 D0 BB 0C 53 DB
 5E 0F D4 2C 3E 3D 29 AE AC 82 17 6A 35 FA 25 28
 A0 72 09 A0 ED 22 7A 39 91 DF 01 37 10 3D 67 31
 79 0B 8A AA 0F E8 2E 9C 31 35 DE D4 84 0E 53 95
 E2 14 13 48 3D B3 72 8D E3 33 D1 82 2A 01 08 78
 C1 47 19 77 3B 26 95 DC 58 F3 AE F5 C4 1D 40 31
 F6 DD 45 60 DD 38 9E 80 3F B3 97 17 B9 EC 98 BA
 4B A2 62 F5 57 02 F0 84 2E 31 C1 C7 64 92 B7 4F
 14 DD 4E 1D BD 7B 04 71 3E 32 BC 60 14 02 DB 35
 67 F4 CA 84 52 F3 A4 77 80 5C F1 F9 7B F6 9B 38
 5A FB 0C 93 92 7E FC D1 4E 16 1E 41 5B 55 8B 4E
 1B 47 91 24 D7 EF 97 93 05 7D 10 FE 82 C5 FA 86
 C1 E5 4D C2 50 B1 87 D1 A7 2E B6 74 15 51 4F 03
 2E 5B 34 3C 1B 0E 60 75 EE 0C 4C C5 99 F7 DE 00
 0E 92 FE F9 85 0A 02 75 D1 F9 21 43 48 3A FD DB
 90 D9 C6 63 0D 59 C8 A5 F6 F4 E4 66 D6 EA FF 8A
 EF 97 70 F1 7B 65 F0 99 76 AB 36 5B F9 03 27 84
 0A EF 6E 8A 20 61 E1 EE 38 9F 4D E0 C0 E7 D9 E3
 EC B4 18 AB 9C 4E 77 9A 80 5F A1 17 8E 32 D7 17
 63 42 E2 C9 1F 4D FA 41 7B 67 BC F7 71 91 EF 21
 7E CC 51 40 B1 6E 45 9B 07 C8 8D 99 DC 07 17 55
 6C 3E 22 F7 8A 87 D6 85 AF 24 62 79 1B 37 FE A0
 35 1A 7A EF BD 0B 42 7A 83 5A 54 8B 64 12 40 73
 07 81 DD 9F 22 85 14 4A FE C3 A6 3F 16 7C 46 13
 D4 5F C3 58 DF DC 67 D4 D6 D6 AB 00 E8 C2 EE D5
 00 0D 88 25 4A E6 CA B4 E8 20 BB 93 80 03 6F 9B
 87 63 39 D4 23 36 66 94 13 64 A6 24 62 BC B1 3D
 6A 48 AB 22 97 65 95 A3 6C 81 7D 27 C7 F2 80 1E
 2E 73 89 AF E7 6D 8E 5E 0F 65 46 C4 D6 2F 53 52
 29 F8 35 FC 5A 9A D2 25 C5 85 02 8B BC 36 F0 98
 01 FA 92 AF 76 68 2F C9 86 1D 96 AF 1F 8E 95 28
 04 05 E3 68 C5 D7 51 EF 43 8D 6C 5D 11 00 1D 98
 06 98 59 D5 57 9F F6 17 17 F7 D5 76 86 F9 A9 A9
 15 A4 B8 58 24 B3 BD AA C3 13 38 00 FF 06 76 61
 4F 68 58 A0 AD 9B 7F 05 FA 5D DE E5 F9 B2 26 02
 32 5B AB 70 D5 DC F2 15 D6 9C 02 81 AB 5F 8B B1
 7F 5B F9 0B B4 6A 37 54 4D AB 43 A1 D6 D4 B0 78
 6B FB F2 98 13 3A D8 E5 4C 4D B1 B1 C0 B2 3B 69
 5E 83 9B 4A 4E 40 5E C6 3B F0 4D 3A 7E C5 B7 38
 71 04 61 7B FC 98 A0 DC B9 4F CB 1A 58 BA E8 6D
 0D 1F 8F C3 10 F5 A7 53 DE EA E3 F4 27 F1 F0 16
 9A 36 66 9C F8 35 D5 10 61 0D DB 3C F2 F6 12 6F
 DC 3B 0B 46 CA 65 74 E4 09 6D 33 BE 5A 32 53 83
 B6 7B 9E C5 BC C3 55 4D 74 28 A4 CA 24 D4 03 50
 52 AF 02 4E 4E 50 BD A0 24 E4 38 DD EA 2C 46 B1
 28 49 CD 3F 59 73 B3 C1 69 73 88 E4 8A D3 52 AE
 65 22 C8 48 C9 1D 27 98 7B AB E1 AB 43 8C EF DE
 2B 96 EA 21 83 CC 06 1F FB A4 C7 E0 EB 5F 0E 01
 6E 5A 18 23 7F 0B F5 73 98 BA AB EC 58 44 91 CE
 67 80 C6 48 A0 DD A3 37 98 DB 4E 7B B4 7E 99 9F
 FD DB 7A 17 7E D3 03 10 E8 2A E4 F2 15 FF B5 0D
 07 6F 3E 32 F2 3C 53 B0 07 DE BC 98 A7 3B 3F 6F
 F1 75 D8 53 4F EE 72 6F 2D 0C E3 E7 29 E0 C6 21
 7C 48 39 45 67 1E 5F D4 CC AA CC C1 F0 05 D4 2C
 6A 78 F7 FE 8E A6 B7 2C 8D 44 86 34 09 5C 32 36
 64 DC 14 D5 44 2C 8D 72 6D 63 69 52 21 04 37 62
 64 F5 36 AE E3 1A 5E 7C D6 34 55 FD 89 79 03 39
 7D 56 75 80 63 42 7A 1F BF 2D 02 75 22 C2 FD 6B
 E9 09 21 1C B4 97 E2 FC 87 25 1A 77 86 EF 6A 7D
 A0 AB C8 7F 0B A1 44 07 3D A3 EB F9 A0 C2 80 53
 AE E0 0A E8 B7 40 B2 34 56 C1 5C 08 5F C0 91 04
 3E C5 B8 A1 05 66 E9 A7 13 C4 D7 E2 9F 2A 8C 46
 77 86 92 FB 81 8F AA 3F B2 B8 75 7B BF E3 FB 0E
 73 3F 46 9F 27 78 D4 F7 C4 B8 EB 47 D1 14 EE CD
 10 70 DA CC A1 B0 F7 9D B5 34 65 13 CC 1D 71 E5
 84 F7 1D CB FF 51 ED 4B 8D 6F 39 E7 B0 0D 64 2B
 D8 74 11 9F 01 5D 3B BF C1 D6 52 D8 5D 8B 0D BD
 F8 CE AD 46 A1 FC 04 2B 1D 15 4F EA 68 CB A5 D7
 9F AA AC 46 3C 6C 8C 88 79 06 62 9A A8 53 8F 13
 01 E6 B1 6F 17 8A 53 6C 96 81 AF 53 10 F8 BD B1
 DF FE 29 A9 0D 60 2E 0A 04 51 A1 51 FA FD 30 80
 6C D2 0D 4E EB FA B6 0D E0 F0 59 45 72 14 F2 10
 DE B5 47 AF 6C 6A 6C D9 38 60 0C 64 63 A5 F8 15
 D0 37 AB BF BD C3 2E 6A FD 83 04 0F 49 78 0F DA
 94 77 DA C2 F3 DA 0B 11 28 8A 07 09 CF 5A 1F 16
 5C E0 3B 9C EE 39 D7 9D 9B 49 7D 8D 38 8E BE 82
 43 12 5F BB 93 1D 04 53 06 1A C8 00 9C D1 04 ED
 C0 BD 2A 11 FB 4A 4D 61 A4 DA F1 B5 13 EC 87 AD
 29 02 7D 36 70 D3 44 2D F3 C7 D8 89 4A FB AD 1C
 8C 62 87 72 B3 56 D0 6B BC 61 68 8D 0B 7D 85 83
 A6 99 09 D4 10 59 F9 5C 13 FE 0A 76 5B 6C 87 F7
 26 3E 38 15 32 15 26 9A BC BE 6D 8B 52 40 BE C8
 FB 3C 90 FA 84 B7 A9 E1 61 D4 02 A2 13 3D 19 6E
 80 3F B9 A0 FB 39 12 03 C7 46 1B 8F 93 5E B4 C4
 F7 59 85 5E 9D 40 C5 E8 E3 73 2B 13 1D 23 18 3B
 7B 5D 85 D7 0B CE 87 E4 0B DC 65 CE E3 13 33 50
 46 9A 84 9F 60 31 4B 55 04 1E B2 F7 51 3D 80 8D
 D8 BB F6 DF 0E EF 7E 57 9E 17 F0 69 E4 9B 38 48
 5A 52 BD 95 62 98 02 25 F2 88 2C 58 EF B9 6B 87
 34 5C 40 49 F0 7D 66 CE 2A 6B CA FA B4 26 65 51
 C5 AC 1E FB C0 F9 51 C5 4F A0 20 D9 42 02 5E 35
 F5 FF 57 8A 39 0E 68 F9 C3 62 F1 A5 A1 0F 6A 28
 76 71 18 CD 79 89 43 5D 52 7B 6F 41 FA 18 3B F9
 74 0C 8B DE D6 1B 56 73 E4 02 6E DD 9F 76 EF 4D
 4C BF F0 E0 94 9C D9 BF BF 7B A1 10 B6 75 40 D0
 03 56 89 AE 56 87 E8 43 02 36 C3 F4 17 A3 0A F6
 05 52 93 F7 02 FE B4 4A 05 D4 4C FB F4 4E 84 C9
 AA 71 FF E1 55 CE 23 FE 1E 04 C3 1E 72 D3 9F 0F
 7B 26 65 36 6F 75 7F A4 BF 06 54 29 FC 6A 94 86
 91 1E D0 93 9E 09 52 B9 F1 2A 56 03 B1 52 DD F1
 36 84 52 6C 86 73 14 45 6A 7D 58 2D 49 30 65 15
 17 99 BA 2A 93 40 6D 92 3F A1 09 28 45 8F CC CF
 C8 99 30 AA 19 DF 8D F6 41 4F FC B3 B8 0D 0A 31
 44 D8 CD FC 98 4E EF CD D6 C6 AD 88 17 08 17 E0
 B4 14 D0 14 9A DD 68 31 18 31 05 60 F3 F0 5D 85
 3C 3A 72 81 FB 67 78 AD 38 5B E1 9A 62 34 7C 05
 22 62 F9 CA 0B 12 DA 8A 6F 19 6F 46 B2 28 13 02
 C1 57 DE BB FD A4 31 2E 0F 2C A9 E2 4C D7 79 53
 1B BD F8 8B C4 8B 15 AD DE 8B 7F 67 C8 03 92 97
 F0 99 4E 67 7B 67 9B 3B 7B EA D4 59 3C 68 07 AC
 0C D2 87 23 27 EB 3F 4E 76 C2 D7 77 77 FB 23 8A
 9B 19 6E AC B6 AA 73 CC F2 59 FF F3 A2 0B A2 F6
 3B 5F 6E DB F9 3C 2B 9E 94 3D 57 74 B6 79 47 75
 5E 6F 7C D4 4A DB B0 AF C9 82 85 BA B8 C9 58 A7
 B6 34 23 AB 39 CE D5 E8 1E 01 7D B5 FE 32 2C 1B
 09 36 74 2B 77 91 57 99 95 EA C8 D5 DC 17 B5 6F
 5D 1E E1 39 74 62 E0 80 D2 79 1E A4 C2 D9 87 D9
 62 9F D0 EC 75 99 BF 96 2C 35 8F 2D 7D EB 67 8C
 B7 2C F1 B6 2A D3 23 72 3E 01 6C BC EE F1 C9 66
 D5 03 2B 1A 58 35 31 3D A7 0C BC 10 AD 55 5E 10
 06 B3 84 5C 58 39 EB DD 5C 4E 8E 8A AE 3E E7 30
 61 E5 7C E7 09 3A 0D 49 B5 F7 91 F9 5A 1F D3 28
 43 EE 8A B7 0B 50 D2 53 B1 E9 98 D2 50 94 1B 7E
 B0 8E 7F 2E 56 94 77 B5 63 10 76 57 93 25 75 57
 6A 17 A8 66 CE BA 96 D8 87 6B C0 4C 81 65 4C 78
 FD 51 3A 1F A7 D6 39 08 E6 0F BD B7 D0 9A 8E 92
 EF 60 10 15 F1 E3 B3 63 F1 E3 A1 E3 22 1C A5 C4
 75 EA 99 FE 28 F0 E5 02 01 7A 6C F4 CA BB 15 CC
 1E 6A 39 E3 AE 6A 6A 52 3F 39 76 D2 B3 15 ED 81
 B0 30 07 DF 9C 99 5B 82
* End 1304752053 3989859685