* LTspice Encrypted File
* 
* This encrypted file has been supplied by a 3rd
* party vendor that does not wish to publicize
* the technology used to implement this library.
* 
* Permission is granted to use this file for
* simulations but not to reverse engineer its
* contents.
* 
* Begin:
 6C 54 CE DF 7D A0 4D 47 DC 8D 4C 48 B0 84 8D 88
 4D 7F B6 8C 5D F7 38 51 87 83 3E F3 EE 35 0B F0
 1C 19 DC 1D 84 54 1C C7 8D B7 C9 84 8A 70 D6 BF
 A8 1B 08 17 AC 4E 07 62 ED BF AA 8C 7F 37 81 47
 4C 98 21 69 9B A7 80 40 DF E9 1D B1 02 F5 2F EF
 49 1D 1D DA 7C D8 A1 AA EF 39 13 45 ED 05 75 13
 B5 2A 3C 99 FF DD 36 A0 E1 19 A2 96 C6 0E 02 5C
 0F 69 4B 12 C2 45 8F 33 9D 39 40 0D AF 7B C1 BD
 9F A7 EE A8 AB 08 D9 FB 2C 70 DB F9 5C 48 90 7A
 0A D9 9B 8C B3 6A 1E E4 34 78 9C B6 F5 4C D4 FC
 B5 6F 68 28 77 F9 CA 79 12 3C 2F BE 16 64 91 18
 A7 9B 19 78 A1 22 94 CC 7E 3F 2B 2E 5D 7D 76 10
 D9 80 86 E1 38 B3 EF BD 5F AF AF 8E 99 54 3F 6C
 D0 8B 1A 40 E1 9D 7C 1C 64 8F F8 C7 92 B3 90 F7
 E5 75 4D 78 24 C7 17 68 08 6D 07 6A 95 6B 27 4F
 C5 50 E2 3D 73 10 07 8B 7E EB CC EC 24 1D 67 26
 35 CB 2A BB E2 6C EB E1 2D A8 EB 6C B9 E3 B6 8A
 39 E9 91 DF C3 EF FE 8C 8B A5 49 13 0A 9B FD E2
 54 37 53 53 89 3A D9 F9 0D D5 4E D8 C3 AB B1 C2
 88 2C 15 C4 56 95 75 83 2B E6 92 EE 55 ED 31 10
 2B 68 63 B0 ED 02 77 51 73 B1 9C 3C 7D DE AF BB
 90 C6 13 3A F4 81 A0 4E 6A 7C 15 3F 5C A5 E8 77
 5F 3A C0 89 E3 3D AB F4 10 98 F2 57 DE 50 01 84
 83 4D 3D 20 9D 41 70 E9 CE A9 A9 B4 41 F0 19 FA
 EC CC C9 28 04 4E C6 90 88 14 18 80 60 9C B2 7D
 AB 74 BD 2C 97 78 69 33 3C 02 C5 6F F4 E7 A5 4B
 BC 5D 39 8C D1 23 F2 10 52 73 CA 67 BD BF 72 D3
 94 DF 70 28 6F 58 7E ED F7 90 C0 A6 15 EC 6B 57
 BE 47 31 9B A2 92 83 1C E8 E5 84 D7 6D 42 A3 01
 BC E1 7C 0B B0 34 7E 00 5E 04 F7 58 99 A1 2E 17
 FA D8 CE 04 94 59 91 72 96 E6 16 F7 D8 D5 A0 63
 C3 CF B5 96 C3 7E C9 03 DF 0F A1 BE B1 27 CF C7
 B6 2D D9 B7 3D EF 54 8E 65 0F 10 26 17 D2 09 E2
 21 F3 BA 35 6D 67 FB 25 9F 06 62 CB 7A E6 31 F5
 C5 FB 59 FD 01 5F 81 90 CA 5C B9 45 5E 82 D0 52
 9A 76 2D 7B 38 4D B0 A6 DF 7D 79 DC 3A E0 FA A1
 1D 16 4F 72 BB 8C 77 37 DB 28 99 34 AF 5B 6F DB
 E9 19 1A FE EA BB 30 02 FF 7A 85 D3 74 AF 36 42
 E1 94 61 8C C7 E3 48 F1 04 9E 51 2F D9 7B A1 BE
 E2 39 94 0F A4 DA E8 2E 27 BD 6E F5 5A 44 77 3F
 02 4E DD 31 6A 5A A6 BB EE 0F 01 2D 3B 36 9F AC
 AA AC 3D A8 E3 72 18 C2 41 4B 7D 10 EE D8 6F CD
 E6 E8 CA 18 C5 E1 55 1C 96 4D 3C BA 43 6F F2 94
 72 10 7D 08 EF 82 02 07 8C D2 85 EE DF 8C 23 40
 99 46 FD 8E 40 EA 1F 76 57 B0 4B D7 64 BB 94 96
 6F D2 B0 05 4E 33 E5 1E 7F E9 7B 45 24 EA 22 6D
 F6 41 B7 25 C1 BE D8 AE 25 8E 41 49 89 80 13 E9
 22 B7 C9 BC 76 08 4D A4 E7 3F 66 C6 7B 7F 9C 84
 95 28 38 AE 1E 9D 3F 03 D6 B1 FB 11 AC BC 0B 1E
 74 EA A9 AC 42 CE 4E 6A 90 32 97 CD CF BC 33 FE
 42 2E 29 99 74 6D AE 0F 78 5D 70 1D E7 A4 04 B5
 C9 6F C1 55 5E 37 0C 0F 52 FF 04 7B 4E E8 59 6B
 F0 41 C7 43 51 1B 50 4A FF 20 E9 38 EA FF 47 4E
 1B 7F 39 E4 A5 93 DF C5 E5 2E AA 95 EA 88 85 9F
 D6 C3 33 01 34 1D 31 16 D8 A5 FE 1C 99 52 46 29
 17 61 FD 72 CA 20 B9 E7 E9 1E C0 E1 A6 F7 55 57
 7F 96 DF 39 C6 C3 A5 68 57 7E 40 83 49 14 23 1B
 38 80 A4 41 15 66 90 D9 76 08 EA 48 5B 80 31 51
 AF D3 A5 F5 17 7E 41 7A 2C 6F 1A 2D 6F 37 DD 2C
 59 80 26 DA 3B BC 79 12 27 95 9A E3 4B BC 2F E8
 6F 82 63 70 A0 87 DA B7 92 0F FC E8 F5 04 5C 3D
 94 9B 90 21 66 CC 73 85 5C 68 29 20 49 CF 37 7F
 15 4B A1 2C 3B 44 48 63 A9 3E 25 FC 3F ED D6 03
 A3 0C 02 D3 95 D6 3C 86 59 FD 27 34 B9 19 AF 26
 1D 68 F2 B6 6F 36 09 EA FC 4D 9F 0E 8C 60 B7 B0
 66 85 2D 6E F2 37 9D 23 BE 17 AB 4C A5 DD B1 C0
 F9 4D 38 06 DA 15 17 5F B0 C3 0A C5 28 03 E5 87
 5B 31 46 58 51 4F 8D 60 9C 2F 00 DA 37 7D 3C 10
 A4 2D 0A 07 28 E2 2A 0F CD FB 54 47 6A E2 3F BE
 54 E2 54 52 FA D9 46 C0 FE 28 65 D5 8C 25 7A B1
 BF 75 F9 A4 F9 18 B9 6C 85 80 D2 E5 0B 57 F1 E3
 63 80 C9 8B 2B 24 97 71 87 08 9B 44 57 71 14 02
 BF D9 4D C0 8C 37 C1 69 7D 15 E9 2F F9 A7 0E 4E
 1A 5F 25 96 0D 66 94 A1 03 52 55 85 44 47 2B A5
 96 63 24 D7 1B 5C 84 BE 76 27 C7 AB 6C 1F E0 64
 A4 1B 9C 40 11 85 19 94 E1 1D BE 9E E5 D3 11 A9
 91 BC 68 5E C5 47 68 58 F0 0A 36 36 48 2D A1 49
 1E E0 3E 62 24 7D 05 A6 FB 84 DB FC F7 BB A9 74
 FA 3D BD 17 3E 2C 76 C1 F1 91 82 57 C0 E2 C9 AE
 18 76 96 2D 40 F7 8F 29 86 91 A1 18 86 6C 18 0D
 6B 9B 94 D4 F8 88 99 45 4A 39 67 09 D7 83 8F CF
 DD 8B 0B 07 E2 51 74 AE 7A F4 19 FD D8 BE DC FC
 36 20 08 80 59 6D A8 88 D4 32 B6 49 0C 3B 73 BB
 AD BC 98 1A C4 DB 02 61 BD 8E 90 8E C9 32 FC 12
 2D BF 3B 2D 70 12 A3 C1 B7 91 A3 14 22 91 7B B4
 E5 E2 69 34 3C 32 E5 A4 90 BE 3E 21 72 DA 3A BE
 78 CF 74 59 D8 96 54 AC F1 6B 1B 27 AC 51 B9 BF
 CF D1 16 19 7C 72 1C 60 8E FF 25 05 E3 AC 7F F9
 4D 50 03 F3 E0 5C D0 20 92 91 EC 11 40 09 2A F6
 21 33 14 3A 75 84 96 7B 79 CE EA 4A CE 33 8A C2
 DA C3 EF E7 93 E2 75 32 4B E2 62 FF C9 3A 6D B9
 34 C2 42 99 B6 A1 DE 4A 4C AF B9 9B EA 32 E6 16
 5C 07 C7 3F 7E AE 26 AA A0 45 77 A1 F6 66 06 60
 CF 52 4D 39 62 CE 76 8D 87 7A 5F EE 5D 49 41 DF
 DF A3 50 5F C4 85 A2 8E 2E 74 0B 2B A0 EE 45 DE
 AD 6F 83 B0 94 75 A0 96 C0 03 27 7F FB 52 A2 66
 0B 86 67 94 2A 9B 70 0D E6 D8 DE 3C 4C B1 F0 43
 9E 6E B7 B4 B8 D6 52 5D B0 B8 AE D6 E0 C5 B2 2E
 8A 23 31 1A 98 ED 21 CF 1C 00 BB C9 19 B5 A6 81
 AB E2 8F 13 56 7D 07 0B A2 F0 A6 33 80 94 C2 E6
 AD A5 77 3B EF C2 F2 AF 1F C0 38 1E 11 FC 06 EE
 08 15 9F F8 28 92 D2 79 A1 70 E3 DF 54 44 3F E9
 8D E4 9F 89 6B BB AC C4 D1 6B 38 49 13 0A E3 E6
 A1 7A 15 22 88 97 46 F7 2A 0F FF 1C EC 95 A9 12
 A1 6B DC AD C2 62 C8 1B F3 4B 2F E2 04 93 36 13
 CE 9B 15 30 89 DF 38 86 3E 77 DD C7 62 77 93 C2
 88 02 10 0C 99 95 9C 93 F6 50 D0 69 9C 5A 3C 43
 58 39 32 7D CB 86 FF F4 FB 41 D6 7E B0 23 BD 5E
 D6 F7 60 AF A3 DA B5 6B 8A A3 7C 39 FF 84 F5 98
 ED B3 A7 58 0F 0C DF 29 38 62 E4 9F 7A 9E A6 66
 4D 3E CB 2E 3F 38 C2 1F D8 F0 9B 30 FF 11 FA F8
 EB 17 D7 53 12 91 A8 EB 17 B5 7B 94 43 A8 5E 5B
 D0 FD 62 C7 69 18 43 9F 4E DA 2E 8F B6 53 1F D7
 A9 B5 29 F9 D2 54 94 64 53 DF 15 C7 40 F1 D1 C7
 FE 3B 26 BE 41 AE C0 96 16 44 CF 6D 43 56 2E 78
 90 F6 ED 36 5A A8 38 06 83 AC 31 64 2E 82 C4 19
 72 91 8F 4E 7F 5E C8 E9 9F 45 3A B0 F5 73 31 73
 7B B9 4F 61 B4 3B 48 BE 47 7C 5C 59 17 6E 45 41
 DB F2 CE FF B8 18 9B 86 43 A6 75 F4 9F 79 60 72
 B0 A7 0E 2C 5E 06 24 73 DC BF 3A 6B 75 F2 28 90
 8B BA F2 92 EC FA BE 47 43 BE E8 C5 25 AA 58 E8
 73 07 55 21 33 F3 93 99 D9 5D E6 6B 6D C1 58 02
 ED 23 7B C3 5A E3 D5 F7 78 DA 58 7A 17 1D 8C 2E
 65 AE 8E E5 18 B5 48 23 E6 54 9A CF DF DF 68 61
 D2 96 6C E6 E3 CC 18 39 CC 57 10 7C B3 69 BC 6D
 5D 94 42 D6 DF AD A5 98 53 95 88 C6 E3 0C 1E 1B
 AF 01 52 02 AB 66 65 01 42 04 BA 3B 82 9B 03 EA
 B8 E2 EB 79 F4 DF 76 FF 3B 88 10 0C 8B 50 BE 7B
 D9 C8 F3 DC CE 04 2D 05 FD 2A 60 44 4D 54 45 12
 09 7B B8 AF A1 66 70 AF 0E 7F CB 7B 36 26 C1 59
 70 06 43 56 B8 2E 7C 09 E8 FC A1 BF 1D 57 80 F2
 B6 46 1A 78 00 AC F6 C1 C4 A2 C6 CD D7 6F BB 39
 93 4C 2D 65 57 4E E6 E1 20 EA 2D 3E 9D 66 B0 20
 AA FC 80 10 73 C3 EF 85 48 6B 0F 3D 07 9B C7 6C
 1C 81 28 99 A7 45 51 F0 A8 1E 81 58 82 B7 D4 84
 E9 E3 08 02 A1 9E F9 E4 D4 3F 85 AA 96 02 23 4A
 6E E8 7D 11 97 4E 31 FB 43 69 20 8B 6D B1 D8 12
 DF 36 17 42 B5 79 65 88 AA A2 08 5A 4E 3F 1E 88
 FF 32 09 05 78 D0 F8 19 11 5A 7B C3 F4 26 76 0B
 CE 20 86 C5 78 B2 C8 4B 74 AD 2F E4 8F 19 5B 56
 05 24 F4 2E 60 8D 2A 57 33 6B 19 65 C9 45 9F 55
 15 9F 1F B9 40 AD AE 52 00 D1 B2 98 2F 12 50 A6
 55 5C D0 A6 19 F4 FD 5E B9 29 D1 B0 5F 10 44 6A
 B0 12 C4 38 B6 76 5E 16 57 92 48 C5 4D C9 D3 95
 E3 31 6C 43 00 19 AB A7 D0 5F DB FB 1E 92 3F 8C
 9D AC 2A 8B F4 96 D6 22 05 A1 79 1A 79 E5 9A 85
 E4 B7 DF 49 D1 57 DB 4B 42 09 30 77 1F AD F5 BA
 6C B7 03 0C 61 7F F6 E8 39 AE 94 3A BA 0D F1 4B
 38 1F 7F F4 C6 79 2C 50 AA 31 23 2E 5E 08 8B 94
 DE 8F 9A B5 77 53 9E 44 9C 48 A0 DB 43 0A 44 3F
 B1 A0 A0 F9 B7 95 EE 94 B0 4B 9B E5 4A D1 8C 83
 B8 9C B7 F1 2E D7 53 48 31 CA 55 F1 4F BF 9D 93
 AB 52 44 01 36 9F AF D1 92 C1 A9 CA 67 73 2F 5D
 C8 79 1C 4A EC 4C EE A7 CA 15 0F 7E 7D ED BA C8
 A6 C9 DB 48 66 78 5C 30 6A B1 D8 04 29 E7 8C 98
 FA 58 D8 A6 D3 9E 47 33 ED CB ED A5 82 3A 59 59
 B4 72 9F F0 7B 9E AF C1 80 00 1A 51 A6 1B 81 29
 53 C2 1F E2 9D 56 F6 DA EB 93 86 93 0E BE C2 16
 94 5C 78 B3 46 35 EC B4 0D 9C 95 30 74 E4 77 FF
 34 03 6C 54 C2 52 47 C5 B0 3B CD CE 4B A9 BE 96
 9D 6F 0A B2 47 31 7D 7B 86 AC 53 D5 BA A3 21 F9
 5D A9 51 97 0B 15 68 EC EE 2D 7E 8E 66 FC 67 C5
 B3 82 5B 1D 04 49 DF 30 B0 9F 31 8A CA B8 90 41
 13 18 57 DD 22 07 11 05 BF 66 74 4C 6D 83 AE C0
 55 62 C4 07 8A 4A 28 51 4F 25 9B 06 5F CF C1 39
 45 19 A6 E8 D1 E3 F3 AB A8 55 A7 2F F9 1F E6 AF
 D8 85 A3 59 DB 3F EE C9 A2 1A A9 27 BC B9 1F 43
 49 F2 FC D3 B4 A4 2F EE 32 3B B5 7B 39 17 16 62
 20 7D 12 E7 BE 4D 4D BB 45 71 3C 85 7C 8D 2D 1E
 C3 C2 85 64 24 3C BD DE BC 24 44 A1 9E 8F B2 43
 51 9B A3 07 93 1E 98 76 38 12 19 86 4D AF 0D 8C
 B6 CC E6 2D 2E 78 87 0C 61 14 DA 8D 0B 3A FF 89
 EE F1 FC 1F 53 44 30 1B 2B 24 81 E2 99 A8 E3 72
 D8 7F 1C F5 4F 03 01 5A C4 E9 E6 A0 EF 4F 24 C2
 3C 32 15 DA 86 51 76 15 2B 17 6E 06 05 DF 3B C9
 DC 55 F7 FE F1 73 6D 18 A3 EA 29 D1 DF C8 9B 8C
 16 40 1B 42 30 01 EF 6E E2 50 22 EB 2C 26 58 E1
 74 68 47 71 47 DF 95 7F C6 92 C3 E9 D9 05 42 72
 F7 FC 4B 18 8C 20 9B 08 41 D4 AD 67 8A 9D 01 71
 13 D2 F5 95 13 BF 74 58 51 6A E6 B6 C5 18 CA 24
 77 19 13 B1 5A EB 3E 03 D2 8B 4B DC 7B 6F 6A 69
 26 62 A0 8B 03 80 DC AF 23 52 5B 8F BC 69 84 44
 A6 73 7C C5 86 12 79 F3 41 4C A9 7D B5 D2 2B D3
 03 A0 CE 04 22 C6 BC 12 41 A1 51 33 6E 59 E8 28
 1F 0F F3 FB 7F 9F F7 C3 B7 66 B7 5B 89 54 64 71
 A7 3E 75 C6 B6 B1 F9 54 5F 6A EB 87 8E 0B 5B D7
 BD 1E E0 31 1E FC 6D CB 27 72 12 8A D5 E4 29 86
 D1 A9 C7 21 96 3F 0D 71 39 04 BC 45 B4 7C C7 1E
 1D B8 20 61 EE 7B 2E 11 74 02 DA 5A 2A C8 B9 B6
 B0 5D D1 65 B5 0F A6 C4 ED 32 41 E0 87 2F 27 E3
 24 31 61 EC 96 5D 99 FF 8C 67 3F 34 13 E6 9E 0F
 F4 EF 89 D5 7A 8E 0C F4
* End 1953582980 4053225738