* LTspice Encrypted File
* 
* This encrypted file has been supplied by a 3rd
* party vendor that does not wish to publicize
* the technology used to implement this library.
* 
* Permission is granted to use this file for
* simulations but not to reverse engineer its
* contents.
* 
* Begin:
 A9 6F D9 5E 16 70 0C 22 E8 00 8B 9D 2D 9D A9 15
 52 7E DF 65 53 73 39 1C 96 92 30 70 00 60 CF 8A
 02 A9 0A F7 48 90 0F C9 E8 AD 30 69 F3 6D 77 25
 80 E3 C2 AE 47 C0 A3 FC 18 57 4D 21 88 F7 B0 F8
 E6 43 D8 4F F3 CF 81 77 83 74 FC DA 8A 29 47 AE
 D1 4C 38 26 CD 7E 3F B1 88 9A 64 12 6A 08 24 6F
 E5 AB C0 5B 2E 39 15 C6 48 3B 77 E2 8D F8 FA 9F
 1C 0D 47 0D FE A8 66 72 12 CD 84 87 76 84 6C 60
 23 62 89 44 21 AF F2 F9 6D 9B 26 81 4F D0 4D 2D
 0C 8C 65 2F 2B 56 65 6B 0C BA 88 96 C8 E8 9B CB
 9C 5A B0 6B 2F C3 0A AF 9C A9 6D FA 55 5E F5 69
 9A 0E A6 B2 2C 2D 4F 82 DC DD 15 31 03 EA 59 EC
 E4 F3 59 94 2E 10 BA F8 B0 0C 50 D3 AE 07 8A 75
 B7 B6 B0 BC 98 AD 87 E1 C5 CD 38 C4 E1 26 25 DE
 6E E0 22 FA DD 92 C2 57 8C 50 08 73 EC AA 6F 58
 33 5C 80 91 5A 8D AF C6 A1 DB 9D A6 DD 4C 1E 49
 3B E3 5F FD D4 3B EB 70 53 E8 C0 7A 23 1D 4D B0
 ED E3 9C 84 5D 48 B3 92 46 33 E0 5E A1 48 89 8F
 DE 82 D2 83 5F E1 D1 A1 CC D6 01 C0 D9 BE A5 D2
 8D B8 CE 46 4D DE 95 09 36 7D F0 49 1E E5 76 AD
 3D 11 BE 73 90 6E 27 CA 9E B7 1C CF 68 A8 E2 C3
 63 23 09 42 3F A4 F3 7F 63 E7 13 A9 F1 DB FA 91
 38 69 5D A4 7F 0E 9E D8 CE DC 9D 39 27 DE 57 E0
 05 F1 0F D2 5B 25 36 19 8B 59 F7 69 5B 2F CF D0
 F6 CA A2 4B D9 84 19 ED FB 73 39 DD ED 25 A4 6B
 96 C3 A1 3A CC 25 0D 40 78 2E AF FC 2B 31 59 66
 7F 1C 69 04 AC 80 7C 03 24 05 38 E9 8C 6B AC F5
 49 AB 85 75 0D 60 B3 01 A2 57 23 A6 8C AD 47 2F
 33 FC DA EF 16 97 55 13 B3 28 D1 8F F4 D3 92 1B
 72 3D 70 B7 F2 3B D3 22 BE 8F 1D 7D B1 07 6C 85
 15 97 3D 3B C8 4F 6D 1A 58 1C AC 64 99 C0 B4 7A
 DE 27 79 30 D1 B4 60 82 93 A6 A0 AA 76 AE 0C B6
 60 DB 8D CB 71 EB E0 4D 29 14 AF 58 30 02 90 E3
 D3 9E 3B 33 67 F0 13 3E D7 69 63 6C EE F0 12 7F
 FF 5B 67 B0 3D DC CE E9 CB 4E 5A 9C 15 9E C5 9E
 D4 3B 07 20 A9 A7 C6 93 B0 A6 10 DB B4 10 58 2A
 7C 86 1D 22 6C DA F8 F3 33 DA 9B 44 68 AE 91 44
 B6 79 6D 4B 6B E2 1A 65 3D 90 00 C4 2F 60 83 49
 6C 10 1F 09 33 15 E6 0B 57 A9 0C 79 26 44 F1 16
 28 66 FD 15 B4 6E 9F CE 19 2E 91 10 C8 8D CB 2D
 E8 3F 18 85 DE 7E 32 D9 78 04 37 69 BC 87 AB 0B
 88 DF BD 8E 37 CB 41 AE E8 A7 EC E5 8E 9C B5 21
 5B 86 2B 57 13 5F D2 4C CA 42 CB 6B 49 D0 5E 2A
 A9 58 3F 57 C3 74 50 9B 50 AE 9A 96 AF 15 6F A2
 84 13 5A 1A DC 09 68 DE 17 6C 00 13 06 25 E4 B2
 11 FE 83 76 30 87 7B A1 45 30 14 E9 C8 2D 52 64
 61 F4 CF 96 BB 8E C4 FA 8F DA D4 6C D6 F9 30 66
 18 79 DE 37 1B D5 DF 71 F9 A3 3B 5C DC 0E B2 C9
 EE 43 FA 92 E4 D1 A3 1F A6 2E EA 28 8F 4A AF A2
 CB 5A 69 4F C8 25 1B EA AB 13 71 7B 39 03 11 A4
 A3 E8 2D 5B 64 C5 46 6B A9 87 62 2D 4E 4B D6 05
 FB 2A 77 0A 66 E1 E9 BA 7A 93 48 68 BF E7 E8 23
 3A 90 F5 3A FE 58 B3 32 6B B9 A0 24 09 FD 04 52
 1B 92 4D 69 3F 73 6D 41 70 B7 25 D8 3A BD B2 D0
 7B 3B 85 DD 9B AF 2E D0 4A 34 CE 77 90 70 71 C4
 50 4D 54 D3 FC 9C A7 14 50 1C 97 A1 4A F8 AE 1B
 6B D4 44 73 B2 44 8E ED D6 88 04 D4 46 17 2B 18
 F2 50 06 C7 65 BA A3 1E 1B AB E0 69 48 C5 E8 EF
 22 5D 2B 35 D6 56 7A C8 DE EC D6 89 05 15 7D D0
 38 F9 CB 9F 99 1A F2 B7 70 C0 95 23 41 60 4B 6B
 A0 7F 79 A1 CA E4 07 98 A2 EB C2 2E 96 16 F1 2A
 BE 40 86 14 B2 8D CA D8 59 45 BF D7 34 2B C8 91
 2C DF 56 30 46 BF F3 BC 51 AE 78 AF F1 9E 91 62
 3B 67 8B 26 5C 4F B5 0D 78 8D 3B DB 85 11 DB CA
 7B F1 4A A2 7C DB DE 87 6B A9 31 83 2D 70 3A B9
 40 95 38 64 0F 7E CF EF 3A 9E 5A C7 A2 B9 51 BF
 3B C8 B8 B4 7A 18 E0 B8 32 C0 CC 00 A1 D4 7E 02
 BA D9 D8 BF 0F EC 94 7B F7 36 20 D9 55 76 6B 45
 77 D9 72 08 3C 43 D1 7F DC 98 8D 40 8B BF 50 1D
 FC E7 13 7C BF 0A BD 75 1C 3B 44 23 6E 3A 3E A3
 2B 70 79 DF F1 34 38 A3 0F 1A 76 6C 8E A0 A6 56
 D9 4F A7 5A 21 C5 63 E4 FB 1A D1 B5 F5 D1 96 18
 F1 DD CD 62 3E 3E DC CA 43 3D 27 A1 6C F8 50 30
 6E 40 CE 00 7F 36 3F 77 2B 7A B3 A5 64 70 63 F4
 37 DB 6C 04 9E A3 CE 3A 09 8D 04 57 7F 08 C8 CA
 90 20 D4 3B C6 7B 08 64 7F C7 D5 D4 13 E4 80 DB
 8C B7 2D 29 F0 86 6C EE DD 74 89 73 C7 2A A8 13
 66 BF A5 C9 EC FB F8 69 52 EB CC AA 80 E1 1B EA
 E6 E2 F9 9D C5 5B D1 9B FE 66 E0 DF BF 18 CE 9B
 F5 8D 44 B7 45 6A 0D 7C 9E 8E E4 0E CE 1E 9B F9
 65 90 DF 2A 35 DE 8E 82 2E B1 DC FE 3D 84 99 B0
 C3 D6 8B 26 CC 42 AA 74 BB A2 4E 77 55 DD 19 12
 D3 38 02 8F 6F BD 5B CD F9 A9 6A 76 BB 88 3D B1
 ED F9 3D D7 F5 10 72 EC 33 82 FC E7 F5 43 43 42
 1E D8 35 A7 39 0E 64 77 24 58 A5 E2 83 D3 1B 09
 67 1F 50 64 10 60 07 4B 0C C2 21 3C BC 33 30 03
 DA 97 37 62 BE AE 5E 76 47 A8 10 7F F8 31 78 78
 25 21 BB AB 94 57 8D B3 E7 FF 8D 7C 55 D6 1E 40
 9F 82 84 CF 8E 91 F7 48 FE 90 76 CE 86 46 97 E1
 3A D1 1E 37 4E 0D B9 4C 5B F8 A5 EA 7A 61 54 43
 C4 E2 6B 40 6D 26 EE 85 05 ED A7 9A 9E 01 84 AB
 97 E5 B1 A0 8F D5 C2 E3 CD FF 9E D9 95 71 70 DE
 E0 26 3B 50 2C 42 5D D4 31 24 69 31 9C 42 5B 7D
 C0 5E 74 63 0E 87 B9 5E DA 5F 99 25 5B B9 94 EA
 D6 31 DA A4 ED F7 2B A6 EF 90 CC 8A 0D 0C 07 12
 28 82 94 CE 52 1E 28 59 DC CB E7 B6 9D 71 2C 07
 55 FB D6 0C E8 9D 07 0F D3 5C AD 3D BF 7A 19 22
 1F C6 7D 18 3E 17 AE 44 A9 D3 AF E5 06 76 73 CE
 DB 5D ED 68 37 88 1F CA 3E 67 C0 1A C2 7B 87 F6
 2D 3F BE DB 50 12 88 9A F6 E9 FD F4 3D F5 47 D2
 62 11 98 92 E7 55 0E 2F 89 48 22 18 5D 4A 00 60
 7C CC EB B9 E2 2F 8C 1F 1F D6 F5 02 C3 50 80 03
 F5 FF AF 42 69 32 1F 20 E4 9A 5D BE 94 4B D9 9F
 E6 C6 A3 E3 97 62 22 76 BB 2E BC 53 D3 CE EE 82
 4B D8 E1 D1 42 3C 9E 11 35 31 0A 16 C9 6E F3 AD
 82 83 D3 D1 90 1E F9 79 0A 39 AC 65 BC DC C9 87
 DE A5 03 46 D8 93 EB 56 B4 B8 C1 4F E3 FF 3F 79
 FF E8 83 34 B5 A7 39 CD 66 4F 02 ED B6 8A 64 44
 86 D5 6F 0B 89 7C 38 A4 75 0C 78 8C CC F1 33 D0
 4D A1 E3 23 D9 BC 6B 22 A3 17 A7 CC D6 17 12 12
 FF 78 01 69 C9 C6 CF EB 38 37 37 99 24 E2 57 35
 BC 3C 30 79 38 AC 93 AC AB 09 71 E0 37 3B 0F 86
 FC 3C 42 03 7D B1 0B CF 73 84 ED 78 52 BB 06 CD
 AA 9F C1 A6 1A 9C 9A 6E 3F 97 BA 4A 01 D6 30 6B
 D5 9A DD 73 82 40 91 63 91 A7 A7 57 C2 EA 43 04
 91 F8 9D AA 6D 14 0B 3A 30 82 76 6D 71 DE 86 60
 D4 98 FC E8 A3 81 51 C0 8D FB F5 E3 56 69 BE 10
 BE 0D EC FA 6D A7 1F B2 6C 33 44 0E DD 08 D4 B0
 10 0B 41 AB 5F 32 85 88 B3 62 16 5A 52 10 9F C1
 35 8D CE DC B3 E1 57 3D D5 72 20 B4 AE F7 80 29
 92 DA A5 55 AC CD C5 04 9B F3 AB E0 CA C2 4E 91
 A6 CD 99 B1 61 29 80 49 45 19 10 99 56 47 E0 26
 9D E1 BD 21 B6 29 9B E4 51 D5 1F FD 87 C9 4A 3E
 C1 26 A5 F3 60 72 D3 60 5D 33 D6 8D 76 F9 21 27
 50 13 0B ED 4A B5 14 14 E5 A9 CA A5 EE 2F 91 BE
 47 57 4F 1E 72 52 EE FA 7B CF 49 2C 5B A9 54 82
 F6 BE 52 21 50 FF CF C5 28 BE 09 F3 F7 88 47 35
 40 C4 4B 7B 5D A3 1B 20 F3 46 31 85 A7 D2 57 9C
 F7 FE D3 06 65 FD 4F DD 21 6A 36 B9 D3 20 13 19
 09 AB 9E 6F A0 43 B2 52 45 86 AE 40 AF 70 6B CA
 C3 B2 DD 58 07 CD 5B 63 10 2C 0B A2 45 AD 0F F6
 4F F2 CD E1 F4 45 D3 9F 55 B3 13 60 C7 11 20 17
 E9 DE 45 C6 E9 3F EB C0 DC 80 A0 4B 1E F3 58 EB
 83 6D 48 65 EA 3D D2 A4 D0 08 87 8D 9F 13 5A C6
 DA 9A 50 DD FD F2 84 F3 81 96 48 72 C2 BC 17 36
 71 7F 69 06 6A C7 3A 50 14 C3 C8 08 BD 60 13 9D
 17 DB 67 A9 5B 56 E8 78 66 09 35 29 17 5A C9 BE
 22 21 AE 60 47 35 E9 2B D0 10 F5 19 B8 D1 70 E7
 13 CE 79 33 BF 41 75 2E 9B 1B 91 9B D4 F5 55 95
 89 9C 1B FE 4B 0B FF 2A D7 16 D7 99 0E 1D B0 0E
 2A CC 67 3D 6F 6C A6 04 01 D1 F4 D2 35 17 DD 36
 0D 8A 0E DD 3E 5E 6E B3 B7 45 23 9C 8E EF 32 B7
 7E 35 00 74 F5 1C F5 95 7D 64 79 8B 77 FD D2 15
 7A 74 CA 1D 75 BF 3D 7E C4 54 36 3E EA 87 16 2C
 DD 90 97 77 DE A8 BB F8 27 3C 7D 63 E0 25 F4 8F
 C2 8B 36 54 8D 13 9B 0F 88 73 A6 9D AA D9 F9 A8
 DE FC 0F 3C 97 88 BF 57 4C 5F 91 19 DB 44 FD 88
 DC C6 0D EA B3 7C E7 BF 9C 66 1A 85 C2 52 21 25
 58 C7 AF F3 2C 7D D7 48 25 19 AA D0 B1 78 6C C2
 6F D2 94 A3 9E C7 77 E9 62 06 11 93 51 21 34 AE
 84 00 6C D0 7A 2F 25 7D 20 87 F2 E6 5D 9E AD B3
 FF E4 D9 FE C6 CD F9 A1 FF 3A EB 66 90 84 2A FB
 45 0A 47 9D 15 26 F3 80 02 08 8B D3 5A 8B 9B 81
 9D CA 2A 52 AB 7F 60 90 E3 FC 3E 0A 6D F0 75 2E
 96 FE 5A A5 EA 49 F2 C3 52 8C 6C CC 81 E1 A0 72
 A3 57 B9 54 A0 25 35 30 35 EC DF DE 30 B0 10 E6
 72 C1 43 12 99 67 FC 2A BD 79 93 20 67 49 83 E9
 EB 7B A8 B2 E7 48 F7 C6 2F 16 4F 63 B9 54 5A 0F
 1C 91 FA A5 21 6E 05 CC 22 E8 76 04 88 93 E9 5C
 2B B7 1A 1A 1D BC D6 2D 89 0F C7 29 49 B4 0D 42
 6B 8D 48 11 F7 7E 3E 6F B3 12 B6 F2 A9 26 CD 9A
 06 8D 45 74 06 52 4F 8D 0E 22 F4 93 09 2B F6 5F
 4B 81 9A AA CF C5 EC A2 D0 30 7B 38 E4 42 67 C3
 70 B2 C6 9F 40 E9 EB 63 33 9D F1 14 1A BE A6 50
 AB C5 4C 87 68 94 26 A8 42 6E B4 10 D1 FA 15 0B
 EA DB 11 44 FE 27 0B 00 44 62 B9 F2 B5 A1 F5 C8
 7C 0B 35 96 31 7D 4F 8D 5E C4 05 1A D1 0D A6 B8
 FA 38 58 7E E6 70 0D 30 41 BE E4 1B 1D 3F 8A 06
 F9 DF DD 68 B5 C0 BC 3D FC 69 33 72 D6 15 5D 6B
 A4 48 1B 8E 33 07 C0 45 39 27 B4 4F 4D E9 A5 DF
 D3 97 44 23 A7 0E 0F F8 3E FB 9B DB 08 85 38 7E
 F0 D8 41 BD D8 CC 75 C7 A7 BC 41 CF DF 65 F5 78
 D8 5A 8D 61 E3 6E 67 4A 54 E6 14 31 F1 80 4D 6F
 97 FA C9 95 D8 03 06 FA 5C B0 8F 23 40 3C 95 9C
 61 91 87 D2 CA 31 50 03 63 19 7A CA BF 57 6C 50
 C9 C6 59 20 82 90 18 7F E4 7C C4 AA 13 C2 B0 5A
 A2 5C 6E 24 7C D0 1C C4 A2 5E 6B 78 F4 0C E2 AC
 EB BF 85 A1 48 C4 89 B5 0F 01 78 71 DE E3 C6 E2
 C4 C1 36 2C 15 8E 86 0A B4 7E DB 5B A7 E0 E3 3A
 EC 43 8E DB 58 2C CE 26 51 9B 5E D8 B4 02 D5 F9
 4A 76 93 10 95 29 18 3C 56 85 97 FF 1F 60 56 9E
 8E 1D 64 0E CE B7 A4 B5 03 9F 5B 69 B1 C4 14 87
 AD 43 BC A4 4F 3A 8F DE DD 46 89 90 7B 70 7D 83
 9F F3 47 9E D9 F2 4B 4C 1F 94 11 EE 9C A7 5F E2
 59 32 F6 34 33 2D FC 06 20 3B 86 5A 4A EB EB B3
 34 54 A9 F5 B9 B1 BA D7 05 75 06 8C C7 7E 79 1F
 52 29 9E BC C3 A5 B0 55 E2 BA 4B 3B 87 B4 49 36
 2C C7 9F C5 26 FB 27 8D 06 E2 CD C7 95 23 50 C4
 49 FD 0D DB BB CB C8 FD 95 08 BA 80 13 E4 FC 5C
 40 BF 05 8D DB 09 15 AB 71 9A 55 5C CC AB 39 DB
 81 CF 7B BD 44 86 A7 38 8E F1 9E 6B 92 06 56 19
 90 30 C4 60 ED 84 F2 A6 78 B4 2F 4F DC 32 91 4D
 A9 76 CA 94 34 44 41 77 FD 09 33 B5 00 76 BD F5
 3F E0 E5 F3 54 A7 FE 0B 69 22 60 A9 96 BA 90 B6
 99 D1 D5 CD E3 38 F7 E1 EF 2B 25 0C 7F 64 FE F5
 86 C5 AF DB DC C4 7C D9 CA 4F 71 AC 27 01 58 4D
 66 32 61 71 00 F3 5B 9B CB 84 E8 D4 CE 9A AE BF
 BA 92 64 D3 70 70 F9 AB AE 37 5B 58 80 C2 6C AD
 BE 19 98 B0 FD 22 7F EF 1B B1 18 9F 5C 6F B9 7E
 E0 6A 3A AA 6C BA 10 4A 6A BF DD 48 69 9E 0C 68
 CB BE A8 98 FB E2 06 FD D2 22 66 E4 35 2A C8 9D
 FB 0C C9 BA DD 20 14 87 8F E2 C2 4B 7D E0 F9 BA
 9B 26 0C 6C 4D 18 96 C8 50 44 8F B5 7B 1F 22 D7
 AA 55 2E AF 4A 20 34 83 B9 E9 36 9A 02 96 EB 45
 4C 9B 80 F0 8A D8 C2 5D 59 CF C3 62 30 7C 43 E6
 83 FC 94 87 AF C4 E0 73 C9 F8 32 5D 21 C7 46 85
 77 08 BE B1 60 ED F9 05 9E 84 D5 9A 65 AB B6 4D
 37 73 EE CC 5E B1 3C CE A3 BB A6 31 A3 27 64 EB
 DF 71 9A 25 F5 63 A8 53 E3 A5 00 61 B0 BF 97 10
 86 20 ED 95 20 68 09 CE 91 46 C1 63 4F EA FC D2
 B7 0F CB 99 E2 30 11 51 E3 C4 0A 4F 14 BE C0 AB
 7B 62 62 48 3C 45 95 53 11 64 E3 03 8F 8E E1 BB
 87 8B A9 4C C8 8B 80 0C 1B A6 AF F5 30 E8 DE C2
 E7 FA F2 D9 1D 12 E8 6E C0 A6 35 E2 08 12 22 94
 BB C1 94 48 3F F6 52 CD C3 D4 59 1F EF 80 20 6C
 08 0A F2 A8 B8 17 C3 49 FC FE 23 FF 67 45 44 06
 15 79 76 A3 22 A9 12 51 C3 FA D1 D2 A1 23 23 B7
 FC 53 92 1C 29 34 71 1E 6E 31 14 7F D6 41 CB BC
 84 F0 40 53 7B 59 67 C7 0C 9F A3 19 89 EC 8F 02
 3B 8E 11 88 10 75 D5 90 AF 5F 14 C9 AB 1C 9B 6B
 47 5D 1B 43 55 88 61 AE 6A 6E 51 0D 5D 5A 02 1C
 B9 23 45 F1 3E 21 D8 7F C9 24 09 A6 0D 67 CC EE
 01 9E 40 76 26 57 64 FC 0B 13 24 B7 3D 41 A7 2F
 C1 50 DA 21 80 C5 76 6B 1C B9 6D D8 C0 CE 96 70
 37 BD 1D 6D 36 AF AE 44 DF 9A 42 3B BB E5 E7 A9
 3E B4 D2 AD 13 2F FE A8 7C C6 CC 46 1E 5E B5 53
 E2 1F 31 45 A8 AB 2B 9E 9E AC D9 29 C2 9D C0 7D
 7E 7E F5 F4 3D 1B 90 C6 00 C2 9F 98 FD F4 CE 9C
 4D E8 89 16 9F EF 82 EE 65 CA EE DC C0 92 28 D3
 D4 A4 89 63 C7 1A 4B BD B5 57 B4 FA FC 22 49 35
 72 4C 3D DA 4B 46 CA 90 6A 04 6E C4 4A 2D CC 6A
 40 CB 52 64 AF 63 EE 10 01 AF 6E 63 C9 11 F2 CB
 C5 70 94 C5 84 D4 50 E2 59 25 79 D6 2C 38 9D E4
 72 A8 5E 51 36 09 ED 3B 51 F8 C8 0D CB 90 34 64
 5D D1 77 DA 04 CD F4 C4 FD 47 3B E9 C4 18 62 FE
 07 8A BE E5 6A 5C 8D 58 7B 35 07 EF 26 87 39 97
 69 2C 05 69 43 08 FF 95 BB 43 21 9F 74 71 89 D4
 29 FC BC 39 16 AE 0F 2A 3A FF 21 C0 AF 7B 5B 9A
 53 5F C0 5B 88 8F F1 EA CB ED AB 79 41 F1 5A F0
 AE 1F B9 3A EF 2D B2 EB 4A 4E DB 55 8C C5 58 B5
 05 3D F4 A5 F3 44 29 62 3E C9 2C 38 A5 57 E9 14
 D7 13 BE 52 73 5B 24 71 23 3F 25 AD 48 46 EA 1C
 07 D9 54 8C 84 5A B2 BD F0 77 E3 C5 56 D4 6A 81
 58 B2 94 88 E8 F4 FE 48 1A 52 AD F8 8E 66 14 18
 12 75 BC 97 16 56 7E 9C D1 04 C6 97 D1 D9 15 AB
 40 B8 D5 93 ED E6 90 7E 52 0B 5D A6 41 D3 85 B2
 3B 28 B8 CE 86 BC 81 29 63 E4 FF 7D E0 11 55 E4
 99 E2 53 FD 2E 9A D1 B1 96 9D F3 2C FE 43 94 F6
 B5 BD 35 30 81 AF B3 C9 8D F9 95 A1 9E EA 95 5B
 78 11 13 2A 19 4D 5F D7 93 74 20 DA 68 FD F8 1A
 08 75 37 6C C4 FC ED 7A 88 BF 9E D3 D3 6F F3 D8
 D0 FC CC E6 EA 8E 36 AD 7A F2 CE 7D 1D 88 8F D7
 0F CC 48 05 E1 95 D5 97 C2 A7 03 38 98 06 54 46
 3B 27 23 B9 71 8E 67 69 58 5E 6B 9A 3D BB F5 30
 16 79 E2 24 F6 B0 7B 4D 57 3F 05 E7 C6 19 2D 45
 28 24 43 F9 7A 97 A5 2A
* End 2913388493 2537345801