* LTspice Encrypted File
* 
* This encrypted file has been supplied by a 3rd
* party vendor that does not wish to publicize
* the technology used to implement this library.
* 
* Permission is granted to use this file for
* simulations but not to reverse engineer its
* contents.
* 
* Begin:
 ED 47 A3 83 2F 6F ED 2E 54 54 34 74 39 3A F2 03
 B1 F5 FE C0 F6 29 67 DE 7B A2 25 9D EC FF E0 51
 E9 B3 62 23 53 49 69 8D 66 B2 48 D9 B3 01 6D D3
 B1 55 7F 43 1E 87 11 3D 90 AD 16 D2 20 B3 0B 4E
 F5 22 09 CB 84 E7 58 79 FA AF 79 9F E1 5B 1E 9F
 96 AB 9D 0D F1 DD CD B4 78 F6 45 64 66 F6 68 5C
 5F 3D 8E 3F 3C 84 A8 6D 39 AD E8 14 8B 46 92 8C
 4D 05 5A 06 D7 E8 2C B5 9A EC 2F B9 5A 25 73 24
 2C 29 11 E6 69 F6 35 40 88 F7 D5 AC 43 65 E3 D4
 19 F2 DC F7 FE 0D 94 E1 A3 F4 3D 05 5D B0 11 3A
 06 0C BC 89 DE 6A 4B FC 1C 6E 84 A1 31 8C AA 7B
 11 E5 E9 77 03 69 5C B2 5F D2 45 76 39 E1 BE 1B
 E9 D2 90 4A 82 DD 57 80 CD 77 39 F9 01 CF BB 90
 C8 17 FD 15 0C B0 83 FE F4 5B 76 99 99 41 85 A6
 37 07 BA 44 05 6B EE 3E 83 C0 8D DE CD 1F 0D 50
 D0 CC 9A 1E 8A DE BC 52 3B C6 9C 08 2A 87 37 4A
 18 2B 87 0C 7D 66 16 95 C1 2D 1A 09 5F DE 87 A1
 1C AC 04 C0 7E 6E E4 CA 29 B9 3E 5E A0 51 CA 7B
 7F BA 15 74 B2 CE 96 DD 4F A4 10 28 66 BF 31 8E
 0A 9E 5F 83 6B 97 A3 15 C5 76 4A 38 7A 4D 5D 59
 4A 25 3F A1 A8 B8 BF 6C 86 06 65 A0 67 56 F1 93
 5C 1B B9 F3 5D 1E D0 46 10 23 6D A9 5B EB 4C 8B
 89 DD FE 2C 24 F0 CB 57 2E B5 97 ED B0 96 D7 78
 04 64 B4 87 97 9D E5 A8 2C CA 40 43 8A 40 06 EE
 F7 E0 9F 53 45 05 FD 48 48 2F B7 09 AE E2 1B 41
 80 01 A6 46 BC B7 21 28 C9 40 A4 E5 13 0C 98 5F
 5A BE 7F 1C 65 50 13 31 F2 BC 09 96 A4 26 8C 75
 93 5F 70 B6 32 2E 14 54 1C 83 F5 DA 32 D6 DA D7
 DD E2 4A D7 93 E5 BA F1 09 47 0B 22 25 B0 1A 37
 9D 6D BF 35 D8 F5 3E 92 8E 0B B7 6A 8B 5C 35 88
 C6 DD 8D 7B 80 E6 D7 90 0B C5 20 14 0B 79 FE 9B
 42 EA 67 1B 61 8C A4 26 8F 1F EC CE 40 C5 9B 8B
 2E 54 E7 1F 12 67 B2 04 0D A6 6C 62 AA 21 6F DB
 E8 79 6B 78 4A 0F AF 0C 7A 7D 6D 13 11 82 70 71
 8F 3C B9 48 1E 5D 9C AA 67 87 9B ED 17 81 87 FD
 A1 67 58 2F 6F 4D AE C9 47 4C 01 2C B6 E4 08 3D
 BA D7 CB 3C 4C AB CF B3 85 DD 20 2E 48 D1 BA A5
 31 D9 64 62 90 3F 26 C0 CD C2 71 63 46 B0 FB D5
 FC 8C D1 2B 42 64 7C 8F B7 6B 39 87 CF 14 B9 34
 13 57 C4 00 43 2E FC 4B ED 62 DC 16 09 34 FA 37
 27 38 D8 3C 84 17 23 11 27 5F 72 23 86 E7 5B 7E
 18 1C 4A B9 D7 1D D3 CF 64 CE 8E DA 7C 1B DF 97
 13 0C AF 7A BF 82 7F 57 17 C4 C9 85 22 60 64 1E
 34 05 42 2A 75 E9 5F 59 9C 13 63 3B 3A 5D F8 C7
 82 6E 0A 5E 84 C0 A6 E8 3A 75 16 F0 FF C7 F0 48
 68 F5 DC 42 95 8E 16 30 B4 28 86 CA 93 08 BF 86
 9F 17 71 C3 61 89 1F 2B 4C CF 52 DD 8A CB 14 AA
 45 78 6E 83 36 34 60 0F CB 8A A4 09 25 3E 27 AD
 86 21 C6 AB 8B F0 4E B2 67 9F 5D AD AD 3D DD DA
 AA C0 AB 61 BF 7F 39 2E 52 9F 53 E8 7C D5 E3 CC
 8A DB 40 8B 84 85 DA 05 B1 95 D1 AD D7 57 F1 A2
 29 44 86 6F 96 35 28 02 D0 32 98 8F BA C8 3C 7D
 1E 4E F4 0D FE B9 EE 50 33 E7 4E DD 13 3E E3 EF
 8D FD 6A 21 13 26 02 4F 4C 6E 15 04 46 AB BB 2C
 60 9E 31 A6 4C F9 B7 D9 C8 29 3D 3A EA C6 CF 53
 0B 22 69 FB D0 35 99 04 71 04 D4 B8 D3 D1 4F 3F
 68 E9 95 BF DD 2E FA F0 9A 74 93 55 98 D0 B5 D6
 2D 79 FA A1 69 22 F9 E8 5E 13 69 FF B0 C9 8E 89
 BE 5A 3E 2A 27 02 C1 DE 7C 7E 2A 8B 3B CC BD E7
 5B 97 50 C0 17 62 35 78 39 F1 B8 0A 29 84 19 B1
 9F 4A 1A 5E F5 5D DD 6A 7B 75 7D 2F AC FB D9 C4
 9D 2F EE F4 5D BF 25 99 0D A0 C0 53 6E 06 1A FE
 37 3D FE 9F 15 FE 5B B3 85 E9 BA AB 2E BD 80 62
 66 83 29 24 C5 87 F6 42 62 13 6D 97 9C D3 EE 0E
 0C AD 29 75 58 80 98 CB 8C B4 ED 8E 5F 3A F3 43
 07 8B 7B 35 C6 93 8C 93 D8 C2 69 F8 12 31 B3 C4
 E0 DC DC F4 41 F6 CD 4A 85 98 AC 4B A5 D2 9F C1
 E6 90 30 14 93 B6 41 95 23 F1 8F DF B2 45 16 0E
 DD 0C AD 1D E1 7A 2A 81 67 36 6B DC 38 8B 29 DC
 6C F4 6B CB 32 93 8D 68 19 9C B9 03 D8 50 F0 10
 BC C3 9F CD CE 70 7C CA 44 84 51 59 55 84 BF C2
 A9 19 8A 66 DE 03 61 EA F9 D1 6F 94 0C FC 67 37
 FA 32 F1 BD 58 0B 77 C2 86 91 05 41 39 FE E2 7E
 32 CE AF 69 D6 05 34 26 EB BA A1 E1 59 88 EC A4
 9B A9 03 A0 A2 3B 42 AE 44 B0 E8 17 B1 B6 C3 5B
 C9 B3 94 74 72 72 95 53 5F 19 10 F8 0E 0C 67 5B
 B6 20 8F A2 8F 40 DA C5 CD F4 DD FE 47 CC 24 AF
 70 62 F8 E3 DD 50 E3 D0 55 7C AF 57 F3 F4 7E 0F
 49 3E C4 51 ED 7C 20 FA CD 29 E6 58 52 79 67 50
 48 08 F1 A8 C9 FE 79 D9 F3 15 52 78 C6 A5 5B EA
 ED E2 9A 48 C5 FA 81 A7 AA 19 61 8D 48 72 3C CF
 A9 94 15 77 03 68 03 B2 48 8C 86 9C 78 84 49 51
 9C C8 C2 8F D8 26 6F C6 40 2C 48 6C D3 8E AA 30
 D2 40 81 E0 E8 64 64 D6 1B FF A3 48 19 A2 15 81
 82 F6 5B 79 57 14 69 7A 00 00 01 E7 57 08 F5 3F
 E2 17 EA B3 E6 2E FA 0F 86 CA B4 F2 75 29 46 0D
 D3 5B 35 D0 18 53 82 74 52 3C C7 DA EA 23 09 0E
 A6 E7 A0 00 D9 70 36 47 18 B9 9C 09 52 96 72 80
 80 D4 89 54 62 E3 DD 92 1C 71 95 76 F1 3F 1E AD
 D3 F6 90 E9 83 51 2C 85 68 CF 20 72 44 1A 4D FA
 4B E0 C5 78 44 D0 1E C6 35 4E 3D AD 5A 7C AB 46
 07 E7 CB C1 E7 38 94 A8 66 D3 E0 11 4B 08 FD 9B
 A0 C9 E5 3D A4 86 A2 80 E8 95 3F 0C F7 00 F5 24
 28 D7 67 D3 13 B2 B7 39 CB D2 94 D5 0D 30 1B 59
 D8 A5 18 5F E7 76 41 48 B1 B1 B5 32 65 1B 83 1F
 A6 11 CA 72 62 1D A3 C9 EA B6 0E 8B 04 E0 37 C7
 5D 83 C0 33 4F 57 C1 6C BB C4 8A 68 95 02 BD 19
 0B 10 B9 22 29 AF 7B AE 2F 2E 8D 89 87 F1 3E 70
 7D E2 3A CD 5C CE 60 3E 2C C0 7C 41 24 D6 2E 15
 A7 E0 4E 55 B3 E1 EA EF 28 5F 93 5F 24 4B 89 8E
 B5 7E 10 A8 D2 E2 9A D8 A3 9F 2E 23 17 86 5B A4
 05 00 B8 04 8E 5E 18 44 15 D6 BC 0F F2 18 8C 36
 1B 38 6B 73 49 F6 28 90 1E E6 2D 71 6D DB 85 2D
 45 82 F4 49 87 12 A2 79 1C CE A4 80 BC E0 9F B3
 D6 B9 89 3C 7A 12 DD 77 BF 94 22 3A 93 58 B4 E1
 38 05 0E AB 59 22 ED 13 95 F4 26 E3 26 F8 A9 5E
 2F F9 B9 25 3A 15 33 A0 64 B6 64 65 BE B2 6C A2
 8E 6E 5E B7 84 7B 98 8D F1 AB BE 66 8D E0 8C 4D
 BE 7D B1 26 32 93 FE 70 11 68 24 5E C7 A8 02 09
 9F C0 10 F2 D1 39 51 5E 68 F5 76 BC 6D 42 63 FA
 C6 7D 2E C9 DA 2E 56 83 AE 52 2A 0D 75 B9 A8 31
 55 C3 B1 53 72 A0 CC 40 E7 94 9B B7 72 A4 4A 70
 E4 94 14 61 FA 6D 62 5E 7F 98 1F AD 65 52 DE 7B
 76 FF 70 27 58 D2 2B 44 28 DD 13 54 30 8D 74 73
 FC 40 F1 A6 20 C5 71 C9 F7 25 9F 9C C8 45 3A D1
 7D A6 A3 72 F7 58 F3 A0 63 33 0E 90 F5 07 88 B2
 A1 24 6A C3 3D EF F1 BB 5E 96 3C 5A 3B 2E 4C 25
 F5 5A AB 2F DD FA D7 27 92 2A F5 EE 75 DB D4 69
 7E 01 C6 A5 5F 25 5A BE D5 B4 FD 2B 7B 1A 21 B2
 E1 A5 7F A2 4A 3E BA CE 98 6C E5 6E 01 8E 34 03
 AF B1 75 80 32 2A 8F 11 F2 4F AA EE F3 25 73 79
 6C 79 8B C1 F4 40 1D 80 DD 8B 98 1D E6 EB 95 74
 E0 BA C3 14 02 8D 20 F2 4C C3 CD 0C 72 7B 9D 36
 3B 8C 2E A2 D6 C0 8D E4 31 86 F7 6A F6 A1 8E D8
 FC C2 E7 47 70 25 0C 3F 21 0A 43 28 C8 F6 ED 5C
 B5 5A 0D 3E AD A9 5B 91 33 4C 51 C9 BF 3B 65 11
 2F 68 E6 98 8B 21 67 7A 3C D8 FD 09 E4 F2 2A 7D
 B7 4C AB 58 07 11 3C 28 92 C1 BE A9 93 BA E6 9D
 AC 2B 1C 69 96 7E 2A 91 A7 6D 7A C8 FE 01 7C 3D
 A9 E7 E6 0C AA 5F F2 0A CD EB 97 35 20 A8 08 8E
 1A E4 CD 85 DF CF 13 B2 AE 9B EC 6A 9F 87 E7 BF
 16 84 9B 3A 86 09 E5 1A 4C CF 4E D3 25 E2 56 83
 14 24 E1 EE F6 58 40 17 FC FC AB 66 B0 78 AA D4
 29 20 44 64 DA 9B 7A 61 31 37 15 82 0A 70 B2 75
 CD 66 49 B3 8C 59 43 F5 47 F4 B5 0B D0 C9 61 E0
 52 E0 49 30 4A 2A 5B 23 29 91 E3 DD 75 78 E3 DF
 91 93 60 DC 9B 2C 17 25 D0 A9 82 1C EA CD 57 41
 BB 17 42 08 40 C9 13 1B 9F 48 C8 89 F1 98 77 C5
 78 66 92 8F 06 8B 02 3A DA 27 7C B3 9E 1D 05 52
 95 F6 EE 09 60 71 A6 82 C7 F4 6D A0 82 4C 4F B9
 32 36 55 44 F9 71 73 AC 47 6D DB 41 D9 9D C2 2D
 7C 9B D7 8B C7 F0 8A A6 EA CA 91 FA B2 E2 20 25
 95 48 27 67 F8 4D DE A5 3C 74 EC 1D 2F FE 6A A8
 55 7A 98 1F 19 9F 3B 21 A3 70 3B 65 C2 0E 17 F8
 AF 8B 28 C3 FA 18 40 28 8A D8 1B 5C C0 41 2A CA
 BA 5F D0 9E 83 4B DD 4F 10 99 2C E6 7B BC 08 FD
 CA 2B B1 0A 88 54 28 E5 99 8B 57 81 D8 A0 B8 80
 37 1F 17 3B BE 93 23 CF 61 7E EF CC 1A 1D FD 0B
 1C 06 43 89 62 CE 66 57 5D D7 D6 3D E3 D2 2A C4
 8C 1F 05 96 58 20 F3 CA 40 40 96 E6 4A A5 5A 11
 87 A2 17 C6 FA 69 CA 87 99 F6 99 A9 D1 D4 C7 47
 DA D1 AD A2 21 EE 0F 38 DF D0 BF D3 92 A3 8A 8D
 C3 D2 E5 6C D2 4D 99 2D CD 71 EB 4B 7D A9 BE 3D
 4A 59 BE 93 EF 64 F3 E4 4C 88 F6 C8 B2 B0 63 57
 57 D9 B3 76 0B 2F 1A 0F 57 D4 EE 4A 44 BC 0E 60
 11 93 0B E7 25 FB 08 C8 E7 24 7E 44 2F 1D 3A CF
 D6 AF 0B A4 20 CE C9 D6 1D CD AF 62 99 D4 AF 1A
 70 18 44 71 D8 B5 9E 68 94 82 94 4D 01 9F 1E 0B
 1D EF B9 7D BE BF 80 97 56 7B 3F 9F B2 0E 6B CA
 DC 65 A7 57 98 75 11 11 A6 46 F6 D5 87 B7 5B B4
 DC DC 7D 30 1D 68 36 08 BF 32 F0 2A 86 20 54 3B
 5B 20 C2 B7 73 8A E2 F5 5A 02 78 2F 4A 98 1E 8B
 E7 6C 58 CE BF 45 A3 E9 CC 90 12 60 6C F5 E8 01
 B6 0D 11 2A 8F E7 D6 C2 57 AD 66 A7 73 F2 D5 31
 4C 72 44 FC BC E9 03 0C 14 8E E4 5E 7E FC A6 40
 94 69 67 64 4C AE C0 E5 8E BF E1 74 FD C6 39 F4
 97 CD 70 FE 06 D3 53 CF 9D F4 7C 9A D8 4A EB E7
 4B C2 AC CE 72 C5 0B B6 79 F7 D3 1D FB 5D 7F 74
 CE 1F 8D 09 4F 00 E5 E0 B4 30 77 E4 18 41 BC C3
 53 0C 96 06 A4 C4 CF 0F 27 45 F8 06 04 39 9D 6B
 0A 88 39 70 37 5E 40 FD CA C0 F0 69 CC B8 B0 BB
 C7 01 53 84 AF A3 B0 1B C8 0F C1 8A 73 B8 50 57
 35 49 F9 F9 E0 DE AC 6F 1E A6 62 90 87 4F 2C F4
 97 D5 29 E4 E3 0D 7A 54 27 82 60 70 4D 5C BF 5E
 45 AB 30 93 01 1D B8 8D 32 5A 4A 3A E2 E7 07 6C
 DA C6 5E 33 08 E4 63 4E 8F C3 62 FB DE 69 D5 99
 31 0A DC 7B 9B 15 C6 C9 8F 52 63 60 DA 0F 4C EC
 96 CD 5B EA E0 4B B1 C7 FA EF 74 0D F2 01 3D 3D
 34 EA FF 23 1F 7F 33 1E 28 DC 0C 26 8D F8 3F C8
 44 10 70 5D C6 05 87 B1 30 22 0D 53 34 BF C7 47
 6F 46 88 23 0D 0A 7B 95 DF AC 89 8A 0E 29 A2 FA
 04 D6 89 09 EB 60 E5 6C 95 EA BE 29 3D 6D 7B 2F
 49 F8 CA 4E 4E 1D 3F 63 30 92 4A 19 C5 F9 4F 4F
 1A D5 75 91 4F D4 0E 9E CD AE F9 62 19 B1 1A 8A
 68 90 F6 1F C2 57 8A 14 88 32 75 3B AA 27 79 E0
 2F 4D 34 2B A6 76 CF E6 38 36 CF F1 5D CB A8 1E
 37 DB BE D0 1B 17 CE C8 0E E8 91 78 16 48 A2 0C
 A9 46 D7 40 2A 16 6C 39 D0 12 AD F3 D1 A4 EE 52
 5D 02 57 83 70 02 53 5D 85 71 52 98 AA 81 34 06
 CB 8D 75 F0 CA B6 6A 6A 6D E7 21 4A 02 33 D5 B3
 6B 89 54 F0 00 2C BA 8C 9E 03 83 CE 7D 2D F0 74
 04 3C A9 DD 33 98 6A F8 D8 D1 91 31 E7 8A AF 64
 67 7B F8 3F 1C 95 9B DA 83 80 C9 FE 8E FA 7D E3
 D7 7D DF A9 B0 21 52 C5 33 35 C3 8B D6 64 72 1A
 18 4E D3 5A 70 12 2C D3 A7 33 A7 67 E9 26 9F 51
 DB C8 69 61 72 D2 0C CD BF 4E C7 38 A8 15 3D C3
 8B 03 12 15 BA 2E 1C B4 60 A0 0F 31 A7 80 DD 1B
 52 6A 01 A1 3D 99 2B 00 0E 9A 62 08 D4 35 55 75
 1D 40 8A 2E F8 45 FB 62 5C 71 D4 56 02 99 73 19
 97 FD EE B8 5A 2F 3E 0C E8 44 E1 24 30 7E BC EF
 47 BB E2 25 CC 01 A3 DE 18 11 BB 5C 9D AB C8 F5
 40 51 2A 1C 1E BA EC AF EB E0 6E 95 14 B1 98 76
 CF 9A 5F F4 1E 50 50 43 B0 90 E5 BD E3 CA 16 92
 71 ED 3A 37 CD 35 68 02 2E A7 C2 28 67 F8 CB 1A
 DE 88 38 90 FA BE 30 12 A7 54 19 F5 58 82 6A 74
 69 2E 48 CA EF 6B 42 86 C8 95 62 60 00 28 E9 8A
 2A 95 5B 1B 4B E7 38 D8 D7 13 26 07 28 75 19 D6
 DA 41 BD DC CA D2 14 AF DF 63 91 6A A0 7C F9 16
 D5 81 F4 37 09 C5 22 A1 B5 A3 46 CB 14 10 D9 DA
 4D 0B 49 85 7C DE F2 A5 D2 3C 6B 99 7C FA 52 23
 25 40 33 F5 33 9D 7B 1A CF 7E 68 00 90 9E 53 CB
 BF 5E 15 E6 2E 2B 13 FD 9D 66 65 64 94 0D 5A E6
 60 A2 39 5A 55 72 2F 8F C5 BD F2 30 35 39 44 68
 DB 10 D2 7D 0D 6A C7 4A 41 FF 43 17 D9 9B 00 52
 01 1B 60 81 FB 00 B9 90 A1 19 7A 49 AE 49 0E 46
 B3 11 FD A0 17 43 0C 2C 41 4C 01 ED 3B 06 AF B5
 66 02 E0 C2 5F 7E A3 43 64 41 69 DD 06 E8 26 B0
 A3 C2 4B C0 74 8D D0 7F 33 CD 71 7E 8E B5 6A A7
 90 D6 23 1A B2 26 6A EE E4 DB 4B 12 C2 20 39 E7
 EC 59 A4 DE FB 56 46 25 20 57 94 E0 EB C4 B2 6B
 C7 C4 A8 97 80 17 5F B6 B0 90 19 DD 48 75 AD 98
 D2 B8 4F 6C 98 BA DB 02 B8 E1 D8 EF 80 9F 8D A1
 A6 B1 3C 5B C7 1F C5 58 9B AC 47 80 15 C8 B6 6E
 3C 89 A6 4C 5F A3 02 CB 11 F0 70 98 82 AB B5 85
 E2 9D C4 F9 0D 13 05 02 64 D3 22 0C F0 99 BC C3
 6E ED E4 96 5B 45 57 C7 90 B0 5E D1 8A B5 33 94
 7D B1 FC 78 98 41 33 6A 6E A0 3B F7 5F DF 6B A9
 DB B0 AD B4 1F 72 76 EE 8B 4F 77 8D 37 B5 49 18
 5A 8C FC 7B 6B DC 00 8E 62 8A F6 ED 55 BD 84 4E
 BA 0C 74 DB C5 AE E1 C6 10 6F 73 04 24 A8 42 AA
 9A 1F 74 85 AB BF BC 12 81 5F 25 1C 0C 02 18 43
 39 97 F5 93 2B A9 19 AE 7A 43 AB E2 1E 1E AC 34
 07 97 48 7A 42 B8 BB B7 AC 0F 90 BA 5F 2F 27 E0
 82 AE EA 43 7A F7 42 1E 68 6D 72 38 7E 9E B5 CE
 10 B8 BD 54 85 02 44 3D 23 A7 4B 3C F1 3D E0 50
 31 1D 87 B5 9A 2C 41 11 0C 4B 1C 61 DF 96 9F 1D
 26 E3 E6 50 96 6B 6B 6E 28 D0 3B 32 9F EE CF 73
 C3 58 20 C8 04 7E 6B 04 90 7F B2 43 8F 2C 53 E3
 A2 D6 A3 AF F8 8C F0 37 B0 6C 96 A7 C5 D3 38 AB
 DA 8C 24 A6 55 9D 4C B1 A8 EE F0 44 10 03 04 79
 F0 5C EA 99 64 D7 EF 9E A8 E4 77 DE 48 5F 1F 46
 8B 6C 0D CE 72 D8 8C 6E 19 B0 BB 9C F9 56 91 30
 D7 0C 2B 22 25 35 EC 10 D2 92 02 02 9D 58 5F 4B
 9D 62 DC 40 7F 4A 51 D0 59 D0 CB 2A D6 07 B0 63
 5C 1F 04 6D 49 FC 5F 57 79 30 FC E4 1C DA F3 AD
 28 E1 FD FE 3D AD 71 D8 10 AA 4F 04 15 10 2F 38
 49 4C F1 75 F1 7A C8 5A EB 5E 32 B8 A3 DB 7F 55
 25 E1 12 29 73 64 17 7B D4 6A 40 E0 BD 45 E6 AE
 09 96 DC BF 3D 63 FA A1 95 A4 E3 8C 74 D2 1D C4
 E7 70 64 B1 31 2C D5 42 9A 89 DA 8D FD A0 5B B6
 48 4E D5 65 E2 F7 E7 FB 36 03 DA 42 A7 FC 43 64
 93 69 FF 07 21 24 80 81 4F D3 75 16 58 19 1D DF
 11 AC 8B FB 70 76 13 93 6F 62 BC FC 00 FD 9E D5
 7F 06 0F C4 ED A9 C3 5D EC F5 36 C6 C1 3E B0 3C
 1B 10 3E 3D B7 D7 1E B1 26 0F 47 6E A1 CA D2 B5
 B1 55 F0 D4 42 AA 8D 09 12 58 6F F9 EA 62 DD 07
 70 60 C8 EA 6C DA A2 60 91 D6 34 F2 A1 9C 1B 31
 65 7C 49 21 80 1F 9B 2C 3C 02 A6 4B 1F 7A 97 7C
 40 BA 67 45 EE 84 E1 79 DD D5 EA 7C 58 54 49 93
 A5 20 0E 58 FE BC 42 9C 2C 4C 1E 8E C3 B9 39 4D
 2C 28 88 23 F0 F5 C4 40 31 BF B0 86 9F AB D7 88
 28 2B BC 2A DE A5 FB F9 24 45 62 95 25 A1 BF 15
 88 AF FC 9F 71 FD 06 4A 7E 0B 20 F7 8E F4 A7 A7
 84 2D 78 70 BE BD EF 31 56 A5 5E 63 1F 30 64 D1
 E3 8B B1 70 A6 21 11 8D 94 86 F7 2E 89 BC E5 2D
 B0 40 52 E2 7E 23 EE 08
* End 1157234737 853226513