* LTspice Encrypted File
* 
* This encrypted file has been supplied by a 3rd
* party vendor that does not wish to publicize
* the technology used to implement this library.
* 
* Permission is granted to use this file for
* simulations but not to reverse engineer its
* contents.
* 
* Begin:
 84 D2 9F 1A AE 5E A5 18 B9 B6 8B 36 3A 64 3B 2D
 8F A5 A1 B8 3E 70 D1 59 7B 5B 0C 04 BC 65 44 1C
 4F F9 95 7B 8B 1C B7 CC 95 87 6B C6 D4 2C C0 3C
 F5 EA 6A E3 B3 AA FF 7D 89 94 8A 44 84 D0 DF FA
 74 5E F3 64 3C 94 DB 48 FA 29 F5 44 62 2F 7F A7
 D2 B0 02 90 38 3F CB 68 89 C9 E0 99 B0 09 1B 55
 E8 EC 4E AE 3C D6 7E 7B C0 73 6E AE 5B EB 99 D2
 DB 72 E9 0F AB 2A 66 CD 54 72 BD 78 74 D6 5A 53
 D7 D6 CF 87 61 82 48 8B 7A E7 D0 DA 6F 1D DD 43
 1A 72 3D 9F 31 22 24 9E 3F 53 73 AC A5 EB 3D A1
 0D 2C F2 A8 BD C2 4E 5C D5 1D 18 CB 41 3B 3A 2D
 67 3F F7 11 36 83 52 E4 05 82 AE 69 CE 3B C6 FF
 82 68 77 EC 70 B8 9A 93 90 F6 95 E6 8B 22 94 F5
 87 26 77 EC 61 87 B6 F4 51 A5 16 64 95 55 8C D5
 AF 0E BD 3A 7A B5 7E E4 26 0C 01 A2 7B 98 04 3A
 B6 5D 33 40 FA 4C A6 CB 23 CC 03 E9 C8 43 9B 6E
 3E A6 8E 51 85 93 44 8A ED A0 06 7F D1 15 84 E5
 E4 52 E0 2E 9C 14 A2 A4 A5 A3 40 5D 23 39 93 D3
 42 FA 12 F3 B5 E6 53 E9 07 19 B3 71 D6 8D 8E C3
 F6 C1 21 0F 8B 33 54 1D 28 DC 00 98 4E A9 2D 92
 A8 DF 8A 9C 6B 10 DF CB 55 80 3C 80 2B 2C DC FB
 74 80 13 2D CD 69 2A DA 4E 6C BA 74 7B 84 B1 32
 80 D6 35 C7 2E 4A 5F EA 67 ED CA 2A 7C 81 45 BC
 D7 AC 62 80 57 CF A0 91 65 EA 18 B0 0D 0E 6B 95
 08 97 28 BC DF 15 BC 10 98 15 EC 0C 7F E9 4C 25
 87 2C 96 44 18 59 C2 C3 43 A7 79 3E 59 7D D2 07
 BE 0A DC F1 79 D1 E5 0A 70 E9 DC 6C F5 F3 34 68
 A2 11 1B CE 8E 75 90 3D 28 CB CC 1F 38 B8 58 2E
 CA 70 24 1A 1A F7 8E 29 F3 4A ED A7 65 79 28 EA
 10 9A FC DE 32 4E 6C 49 29 3A 00 4C 5B 66 C0 AE
 C5 7D 15 D0 A4 C5 E3 AE C2 91 3F 04 F8 95 E2 57
 EB A6 75 97 54 19 00 96 B1 EA 1D 00 D4 97 EB B2
 0A 54 70 CF FA 92 F2 32 45 95 BE 54 C6 41 BF 2F
 09 18 25 DB E6 4B 24 D3 E1 9B 2C BA 7A 1C 21 23
 86 8A FD AF 6C FA C4 B8 5C 53 BE 91 38 6A 37 B5
 51 8E 55 C0 65 74 84 A4 7A E0 82 56 93 A1 41 20
 4B EA B9 76 82 D7 52 71 69 B8 F9 F1 8B D9 E2 CE
 77 A5 20 A9 3B 31 94 D4 16 4C 5B 14 1C 78 60 67
 44 22 4F 2A 8C EE 47 32 D1 9F 57 50 B1 6B 5B A0
 2E EB 75 99 8C 42 D0 08 EB B0 45 00 2D BD 83 3A
 92 8F BF CB 55 91 DC 45 8D 27 B5 84 59 29 E6 F0
 95 B7 DF EA 31 DA 85 C3 F3 9F 04 41 67 89 01 15
 1C EC C7 13 72 47 12 81 2A A2 C0 D2 F1 8A 1E 1F
 A6 9A 41 F1 8D ED B2 90 02 E7 4C 7D CE 6E C5 F7
 0B 36 97 02 17 0F AC 67 D4 B7 66 62 F7 DA 27 44
 D5 52 59 52 5A 14 69 E7 CE BC 53 A5 49 C2 0E 1B
 93 D8 7A 94 B9 52 C1 39 DF 99 E4 27 64 87 CE CF
 13 0B 52 33 9D EB 0B 45 DD 05 CE AC 04 A3 27 BB
 FF CD 0D BE 8E 61 FC 04 7A FA 85 EC 04 FC 7F C2
 65 64 33 0D C5 4D 4D A7 A8 73 B3 19 29 00 85 03
 16 49 99 99 41 A2 9E A7 91 76 B7 1E D1 DE 08 C1
 26 CA 31 DC 5C 9E 08 6E 99 B7 F7 05 0B B5 EF 69
 B8 00 53 E7 A6 5D 30 4C E4 0B 43 99 04 47 15 15
 ED 63 8B 0D 4C 14 A7 4A AD 96 90 1F CA D7 F9 49
 95 F8 37 69 F9 90 B9 45 62 CB 91 A5 F0 C8 64 32
 3A 76 78 32 15 DF CD 22 41 F1 98 32 9F 4E 4C 44
 76 A8 D7 52 8F 8A 76 24 31 28 CC 6D 26 03 71 5F
 C3 4B 35 EE B1 45 B2 CD 0F 67 48 FE B5 09 56 E5
 69 48 5F 9E A3 4E 1D 95 11 6D C6 00 21 73 52 90
 62 FF CF A5 17 CF 88 FA 01 37 2E 17 B1 A0 CF 4D
 DE D6 FC 11 45 89 50 3F EA DC D5 99 58 00 D9 66
 A8 BD BE CC 46 FB FE ED 36 D1 14 23 FA 75 9F 90
 32 45 CD 0C 11 3E CB F5 BE 26 A1 B2 FD 02 81 4E
 3F BE 8D 9D 51 D1 56 8D 97 6E 69 A8 4A F0 1C 72
 48 BA 68 BD B5 5F 14 51 22 D6 4F 66 72 7B CB FD
 3B 9B DB 39 CD B2 BA FF 93 75 80 83 0A 70 D6 B9
 38 03 EC 3C C0 39 D7 6C 82 22 B4 C7 97 AD 46 8E
 55 17 B1 39 58 B3 A2 5E 53 AB 77 BE 4F FC 35 75
 41 B2 6F 18 96 A2 EE 07 DA 11 67 64 BB 13 DC 03
 59 A3 59 09 F9 9F EE 82 16 6A 5B 1D 89 06 E2 40
 74 7C 18 84 69 DC 92 68 B1 96 25 01 A7 BC 5A 6E
 F4 E0 18 CE 99 42 17 90 10 FB 4C 23 6F 30 B7 F9
 01 B8 BC 19 24 F3 05 02 7D 0B C0 6C C9 40 10 6E
 ED 3E A9 7D 87 3E 71 14 6E EB 88 E6 14 A9 C8 D0
 B0 DA A0 7D CB DB FF F5 43 74 68 2A 09 FA 28 34
 E3 F2 D8 EE 45 DD 12 9F 67 C6 F2 4F 31 EC 8B 2F
 4D 88 F4 3A 64 1F DC CF D0 7A CB 86 B3 87 89 89
 42 6B 38 2B 9A 24 71 0E 32 55 F5 A5 D7 98 B4 86
 55 29 B7 01 4A F2 1E EA 99 91 EC C0 98 4D 81 15
 57 88 59 C3 3C CC A4 73 97 54 86 2F 27 E9 C9 BA
 31 E4 2E A9 1E 40 43 7D 15 59 92 D9 28 E6 12 29
 56 A3 16 73 C6 B2 D5 85 6A 8D D6 29 A0 99 27 92
 3B 70 D2 98 A7 DE 49 C5 73 92 88 80 2B 29 A2 34
 0D 0F 29 12 F3 8E D3 BB 8E 70 FB E1 C3 08 85 D0
 8E AE 2A 40 17 4C 8C 5D 62 76 93 20 43 3A B7 C2
 97 9B A6 6D 71 A0 AF 0A 5F DB 47 85 03 F1 CF 32
 AF 96 59 02 C9 6E 9D B0 66 CC 92 83 A2 58 82 B9
 0C FC 80 CB 19 37 2E 82 1C F2 EA 84 17 41 17 53
 6B BF A3 32 0F F5 CD D4 AC 3A DB 92 89 E6 FD BA
 B7 5B CC 8D D1 86 0F 34 A7 3D 93 89 66 71 EC 66
 59 2C 9C 50 12 88 0F 73 54 27 E2 65 5D 71 F3 DC
 1A 1D B0 8C D2 D1 E9 92 FE 4A 70 C4 65 33 73 5E
 31 10 D5 24 EE 65 B4 B5 00 32 D6 94 B4 87 FA F3
 75 5A AF D0 84 1D 48 80 19 8D 21 AC 23 10 9E DF
 E5 15 A8 46 01 B9 FA 26 E5 E0 BB CA 7E D7 35 EF
 93 6A D2 77 76 22 3A DC B5 D8 63 F1 A2 44 4E 1D
 C4 92 8F 00 A0 0F 7A 93 C8 32 EC C7 00 ED 90 74
 3B 66 11 E2 A9 6E 1E A8 1F BC FE 5A 3A E6 FA 7E
 A9 44 1E 81 0F 0B 3B C9 6C DD 17 AF F7 F6 D7 11
 A4 C7 78 3E A3 4B C4 04 BC 12 24 37 EC 7B 1F C0
 DF E9 B6 C1 66 5D B4 4B 0B 81 89 B3 FC 31 A5 8C
 F6 C7 08 BB 46 A0 01 0F 55 88 2F 99 2E A7 39 AC
 3F EF B6 21 94 73 C8 96 4D A7 1A CE CD 07 05 2B
 47 8D 0B 3B 0D 09 63 56 88 C3 17 7E 91 1F 42 14
 4A 42 66 8A 64 E2 09 4F E2 B2 B4 52 A9 6C C4 06
 AC B3 9A D1 7C 9C 30 27 82 53 AB 3B 5D CD E5 D8
 A9 2B F9 27 B7 89 F7 61 D0 02 DC F7 4C 59 1E 3E
 FA F0 90 E7 C3 F9 C7 03 D6 74 B8 30 03 88 F4 BB
 7C 8B 3C 3A 46 A8 94 17 51 15 72 EC 3F 11 63 EF
 F5 EC 6E 7B B7 DB 38 DC 63 77 47 DA 74 B5 AB 97
 0F 52 45 FE 3C 49 67 AB A0 C4 4A CE 51 90 C1 24
 62 E6 78 CE E9 66 29 84 B4 45 B6 1A FB E1 3E 76
 FF C2 04 52 C3 E2 31 69 5D 7B E9 77 DA 7D 3C 21
 86 18 32 E6 67 6C 0E C0 EB 1C BE 2B 30 C7 7C 9B
 92 52 DE E6 C4 6B EA E8 7A A7 D6 BF 0D D3 93 78
 A9 E3 31 96 60 69 C4 D5 47 8F C1 28 66 98 B1 2E
 3E 3F 4E B7 C1 0A A2 B3 D1 62 EA B8 91 41 DE A8
 35 2C D5 6C 90 94 54 02 6A 42 E3 F4 AC 49 33 36
 3D C6 8A 66 6A E5 FA 8A 4A 06 84 57 EA AE 70 AA
 EA 2E 71 02 4C 1A 4A A0 14 4B 89 8B 7E 7A 29 36
 55 CA FC 5C 3A 43 6F 2B EB 43 30 7C DE F3 2F 71
 0C BB F7 FA 94 D8 53 4A C8 FE 3B AA 22 CC 38 F9
 5E A8 7A 0B 99 BF 59 6B C7 A8 18 59 D7 4D 1C ED
 2B 1D 71 24 0F 63 D8 45 00 D2 25 AB C8 62 18 42
 BF 36 6D C7 CA 23 94 CB D2 37 0E FF FA C2 18 EE
 D6 53 FC 0E 5D B5 28 F7 84 85 DA 52 DB 94 31 AB
 A3 CD 95 5B 83 C3 D9 CA 45 13 EC 00 3F AC 92 01
 3C FF F5 80 16 93 8C A9 8E B7 1A AA 04 FB B3 F3
 4C EA 9A C9 F6 CD 7E D2 C3 D6 76 5E B5 DB 63 CD
 12 75 26 D4 6E 70 C0 12 FB B4 62 41 EC D4 F3 5B
 A4 81 E8 7F 3A F5 45 5E 7E D1 7D B7 D4 B1 66 07
 6C F8 1E B5 3B 08 F4 E5 32 E7 90 81 9A 6F 4D 38
 FB 22 12 A7 FE 5D 3F 99 3D 41 04 2B F8 7B 20 C5
 31 6A 6E 40 DC 2A 1C 16 95 ED DA 30 A6 AF 9A 33
 84 2C 25 B7 A6 F4 1E EE B1 87 43 30 CF 5E 61 17
 3F 3B 43 2B C3 59 EB 65 88 EC 52 A2 B0 EC 28 41
 37 E9 16 7B BF 2E A2 48 A2 AC 41 D6 7D D3 D2 83
 DB 64 3B 68 30 84 70 E3 D1 00 00 AA 54 9F 14 A6
 10 2A 82 B3 8C CD EB FD 83 1F 2F B6 74 A5 F8 6F
 1A ED B0 E0 D5 FC 38 88 E5 CE 21 4F C4 B0 40 E9
 FC CC A6 08 5C 28 2E 42 A8 3C 1F AA A6 07 63 EC
 01 06 3E 5D 13 ED 4F F7 E0 5F D4 CA F6 33 95 55
 CA ED 38 08 EB 66 1A 39 F3 33 FC C2 49 B2 56 A7
 B5 EF 22 3B 67 CA EE 63 5D E1 CA BA 96 B5 D5 EE
 73 CB C1 1E 72 69 B5 38 28 A6 0B DF BA 94 F0 8F
 3D 57 B0 81 61 26 1D AB 2C 94 DD E4 94 D8 A5 7E
 25 D4 DD F4 6D 41 9B 6E B5 54 27 50 3D 92 43 1F
 52 2F 23 35 E7 95 66 2C D9 3B 10 90 6C 6B 17 CB
 CF AF B9 EC 32 DE E1 62 F5 0F 65 1F E4 BF 6A 61
 5C 15 13 FE 54 B9 65 40 DF DA EA 02 A8 4F EC 60
 71 C5 54 CF CF 38 AE D5 6D 5D 69 AC 71 B6 C2 AF
 04 72 F0 91 27 0C 28 06 6E FE F9 66 F1 E6 F8 0B
 B5 27 68 1E BB 9A E3 F5 3B 15 61 E8 3B 48 18 70
 88 45 02 15 B6 B0 19 99 73 08 C6 0A 54 C2 AD 27
 65 B1 54 4A E6 EC 15 99 59 DC A4 C9 ED 2B BF 68
 5F 29 CC 34 6B CA E4 15 D7 F0 15 85 68 C3 2A A4
 F2 B4 B5 BB B8 5E 6F EC 6D BE 48 B9 41 9A DD 72
 92 7B CC 7D AD AC F1 D4 F1 EF 12 37 D9 16 94 4B
 43 09 D2 85 D4 42 46 00 A5 44 47 BF 06 DA 34 95
 C6 A7 A0 74 23 07 DE F3 7D DC 90 C2 C4 E5 87 9E
 A0 3B C9 BB 4D EC EC 7E 8F EC 35 19 3B F4 D2 90
 04 07 2A 68 AE DC 69 7D 38 10 3E 30 CA 86 0F 29
 C7 01 EC 9A 88 1B 8D E8 CC 70 DB 3B 99 26 6C 8F
 6F 2E 7A 0A FD C5 98 FF 80 BB 02 D6 2C A6 51 CA
 AD 30 32 CA 96 D7 21 57 00 2B D8 6D 05 62 2F 95
 C9 8C DC 84 8F 59 FC 2A A4 BA 8B 05 FD 06 67 22
 F8 10 35 B6 05 C2 91 29 24 8F F8 A3 E6 E2 14 9F
 A3 FC F7 22 F4 2B 7C BB FA CF B6 F9 D8 3E 89 EC
 AD F7 6A 47 36 EA C4 67 D3 AC 3C 64 D4 72 0B 20
 FC 57 57 27 16 3B C5 07 BB CE 1A 0B F5 4E DB 72
 1E 76 BB 71 6A A9 21 A0 65 F8 A1 77 8D E0 00 93
 A9 80 3E 5C 14 29 35 EA 36 C2 5B 74 3E B0 C1 0C
 21 EE 89 9A FB 7D CD 6C 69 F6 29 15 AA FC FD 0D
 71 D3 08 9D 53 FE 94 B9 E8 A5 12 65 8B 40 4B 70
 3F 39 8B C3 58 DC 99 B8 C8 EC BA AF 75 C1 C3 A2
 99 C2 39 97 F7 91 79 55 C5 C4 9E B2 6F 37 22 A5
 97 23 22 65 EB F7 1E FC E9 41 A1 BF A5 43 48 69
 97 56 73 36 70 95 81 00 0B AA 07 99 77 5B 99 DE
 0E 80 61 41 6D 00 A6 A4 C9 03 74 5D 4B A3 78 E7
 BE E8 98 93 9C 86 0F AA ED 31 5F EB 7A C3 DF 3A
 8F BB CA A1 97 8E 1C AB 8A C8 39 16 94 76 E9 82
 1A 5C 1E 74 FD 22 63 17 00 B1 09 B3 B7 CD FC 21
 23 6D 15 58 7A 7B 13 46 F1 B8 2C C1 87 03 9E 8E
 57 D2 E9 45 C9 62 30 2E AB 81 5F 74 A3 E8 15 44
 82 75 DF 1D 9D DB 82 F6 99 9A 66 3A 89 0B 72 2C
 D9 A5 F5 7C 62 66 47 25 51 D3 56 08 0F 61 56 03
 DA 20 4F 2D D5 4C 1B DC B7 D2 5C 7D 68 86 D0 2C
 8D 56 74 4F F0 DD 95 F1 F6 39 5D 48 0C C2 F0 DE
 BC 9A 56 FA D0 48 85 0D A2 5C 05 B6 50 8C 7B 9C
 37 F5 CC D4 14 6E 69 74 13 89 6B 2E 6B F8 77 A7
 E2 5E 1D 3E B6 A4 44 5C B4 D5 A1 FE 7A C4 3B 5F
 BE 81 92 03 4C F8 3D 20 75 AB B4 35 B0 CE 7C 08
 F9 A2 9A AD 69 7A 60 AE CC 4F C3 BA 4E 8A D6 99
 EB 59 99 A7 37 FF A8 B9 E6 3F B3 8B 79 27 11 EF
 9D 35 A7 26 D6 26 5D DD 88 7D 53 69 96 B2 4C 8C
 CF 40 A2 A8 4B C6 BA 02 7E 4B BA 3F 68 40 5D 42
 72 C0 67 0D 1A 91 04 9D 23 43 99 0B 71 7D DF 94
 FF D6 33 B0 1B 5B 47 4C 71 1E 37 C2 DB 01 A5 B0
 66 9B DC 82 FD 53 F2 82 6C 9F CF 20 0A C9 33 DB
 41 37 52 3A 05 A6 02 86 57 E5 D3 2C FF F1 A4 6B
 13 F6 7F 5A FE 4E 65 AD D4 09 C1 2E E5 6B 77 FF
 B3 DB F6 6D 8F 9F BB C4 B8 C3 ED E1 FD E7 F2 46
 9D E3 D3 93 27 1F 8E 8B BE 86 A9 EF 44 BB 2C F8
 CB 35 E2 F7 C3 9A 98 51 C4 75 AC BE 27 73 24 70
 05 CF 1A B3 40 2F FC F2 24 84 3E D3 DA 5B 81 96
 B3 6D 02 1A 65 C2 A7 0E 04 A1 A3 C7 68 FA 9F 1D
 1B EB 4F B2 57 9D 6D 3F 72 13 FD DA 59 8C 65 62
 D1 E2 39 29 D2 17 23 4D 4F 49 2E FD 91 AB 71 C8
 13 68 58 32 ED B0 C1 F1 12 BD 35 04 BE DA BE 9D
 4F 56 42 1A 34 51 34 8F F8 80 0E DE 20 76 3D 43
 92 AE 3E 54 AC AF 7A 29 C9 0D BE 22 11 5B BE C1
 21 86 A3 DB 1E 5E C6 36 C8 D5 76 C7 3B 39 F8 2A
 2F 68 76 59 93 14 30 29 EB D6 06 94 B7 AE 84 FE
 59 97 96 F6 80 A9 95 FC B8 84 4D 84 47 1B 61 07
 6C D2 E1 95 EC CF EB 93 A5 34 0F DA 61 C9 15 6B
 F0 37 CA F6 34 80 CF 47 CF 7A B4 93 0D C2 05 62
 B0 93 13 40 E6 52 D5 8C A6 8C 07 AC B0 EC 45 C7
 37 68 EA 2B 59 A6 3F D4 93 7D 65 19 F6 E0 EA 89
 8A B2 0A 28 0A D6 87 14 D3 4F 62 B4 B4 CD 87 4F
 22 A7 43 5F FA E5 8E 65 B7 C3 AA 10 60 1D 27 04
 E3 80 09 7E B4 52 4C 2E D2 30 A6 4B 50 0D 4F 97
 C2 A6 21 C7 E3 07 57 4A CE BF 16 25 46 0A 16 01
 03 B9 2F 17 E2 D4 58 5E A0 DB 96 32 5F A2 F8 1F
 8F FD E3 D7 6E 25 0B 56 EE 8C 23 D5 76 8E 37 DE
 62 95 9A 06 3A DE E2 CB 16 BA 36 CE 9B 88 3E 2E
 D2 0A 04 09 60 6A 94 1F 7F 3A 7E 4B 73 EF AC FA
 D3 43 19 C6 95 4E 81 4C 49 41 A2 8C 8C 7B 40 1C
 BC 3E 8D FD B5 E8 3A A8 8E 1E B0 EB 2E A7 0E 88
 8D 28 32 8B FE 99 D2 CD CD 58 AF 19 46 AE EA 1A
 B4 7B DF 57 81 27 4D 4B 9E B2 AF B7 00 B1 F3 E5
 9A 21 47 D6 B1 BA 8D 97 DA 76 8B 9C 08 C1 06 00
 72 27 DD 48 F1 08 EB B8 C9 29 EC 10 54 99 FE A1
 3F 31 31 5C 75 90 69 06 B9 34 15 48 D1 9D 58 5B
 10 AE 93 69 F6 8B 9E 8B A5 30 49 A0 E8 9F F2 C7
 AA D7 09 90 5D BF 23 36 18 31 47 7F 51 A9 0A 95
 62 3D 38 DE 47 3A 2B 85 51 03 7B E0 B1 50 7C 09
 3A 38 32 81 BA 68 90 47 71 B7 FC 56 DC F5 79 3E
 AA 57 8C BB 40 27 BB 86 B2 68 F7 0A 8F 94 4A 22
 2D F5 E3 1F 23 15 C3 9E BA 1A 8B 10 7A A5 6C C6
 E8 8C 15 65 06 17 E6 84 BB 10 08 E6 72 37 1C D0
 30 76 8A 64 3C 7E B9 7E AD 74 2C BD AD 47 4D 03
 31 0B 17 8F 66 00 F6 27 9E 05 89 6E A5 09 6F 08
 B9 CA C3 B3 3E 72 DD FB 6C 7B 88 FB CE 20 2D 69
 8C 92 2D 15 EC B0 C9 5F 67 6C 78 DC 22 91 5B 32
 56 C8 FE A1 8E B4 22 89 89 AC F7 71 C8 B2 E5 24
 09 4F F4 E5 E3 2A DE A4 60 2D CC 9E 68 72 4C 0B
 C0 F7 A9 AC 0D 97 41 92 9E 48 79 45 AB 70 13 4B
 CD 85 C8 B1 67 8F 21 F3 E9 FD 8F ED A4 B6 4D D6
 77 C5 52 6C C8 46 5C F8 28 2D F7 81 A0 CF FF 31
 3A 5E 23 D1 C8 2F 07 E1 79 80 3B 86 69 87 5E A2
 02 EA CA F8 6A 25 C3 3C 7B 44 EE 1B 7F B9 36 3E
 C0 06 8F 28 2C A4 28 33 66 9C 03 A2 CE D6 C2 55
 50 90 9D AA 4C E5 B0 E4 D5 E9 4A 0E 41 7C E7 39
 EA 17 09 4B 02 85 CC B1 B1 FA 7C FD D8 86 32 2E
 C6 69 BF 06 32 59 63 19 35 93 55 9D C5 DA B9 AF
 2B 24 C2 4B 2B 6C F0 2A B3 1E E4 F4 BF AC 7D A1
 89 9B 8E A2 CF DE 62 B7 31 6B 9B 4B 1F BA F6 F9
 92 0E 2D AC 54 3E AF 2E BB 93 A8 E1 72 00 B9 57
 9A 72 B2 D8 3B 1E 8D 3E 7C 1D 89 69 3A FD A3 8E
 9B 69 CD CF 00 26 DA 25 D5 B4 29 25 D0 F6 5F 5C
 B2 F4 EE 75 71 04 8B 31 5F 8B 2D 4B 8E DD AF 3D
 A6 B1 D1 1E 1E ED A7 89 B9 9D 60 8D C1 1F 02 6F
 3B 14 0F 50 CC 0E 4B DC 09 11 62 FB 1D 0A A8 0A
 9D CF 3B 14 32 94 AE 25 2D E4 E4 BC 55 B0 42 20
 1C 0A 96 B6 85 42 24 43 A6 5A 07 B8 AB 8B 4C 03
 B4 9A 2D A7 53 7D 5C 53 9A AD 64 E8 17 13 0E 8E
 0E 34 25 30 63 CB 09 C8 E8 D6 25 0E A6 A3 D2 90
 0D 94 57 73 2A 65 14 3A
* End 2798042014 1017480320