* LTspice Encrypted File
* 
* This encrypted file has been supplied by a 3rd
* party vendor that does not wish to publicize
* the technology used to implement this library.
* 
* Permission is granted to use this file for
* simulations but not to reverse engineer its
* contents.
* 
* Begin:
 1A D1 95 B9 89 FF FF 53 E1 CE 71 11 86 86 6B 13
 F9 10 53 F0 CD CC 83 98 95 0A 08 50 F3 9E DB 1C
 C3 E8 E2 F5 22 BA D1 59 84 B6 29 3E CD 14 56 10
 1C 68 05 D2 51 DE 17 2F 7D 93 39 FB 6D 88 11 C2
 73 69 6A 36 B1 13 B0 F9 50 99 44 B0 B1 AB F9 9F
 24 26 6D 17 D2 D3 D2 AE 86 06 88 18 12 48 40 FA
 A2 51 8A 0B 2B AB 7B 6B 05 92 B6 1E 0A 31 52 7D
 9B E5 B4 F9 01 3E BA F5 30 84 73 08 95 35 8B DD
 97 DC D8 D6 99 43 D4 61 5A 3E C6 08 DF 2B 6D 96
 5A 06 89 A0 79 05 24 E4 21 A3 84 35 92 6C D5 AE
 45 E5 9A 86 46 84 70 42 32 48 2C AC 83 69 51 03
 C8 6F 09 4A 00 AA 5C 52 C7 02 31 3D 4F 03 6B FA
 5E BC AF B5 C6 3D C5 0E 7E 11 F2 69 25 EA FF 7F
 3A A3 96 46 B9 BC 7A AA 69 4B B4 39 4E 27 29 87
 69 93 A1 E7 58 4D 90 BD 57 28 04 C0 A0 25 AD B0
 81 A2 2B 6A 54 C5 6B 7E 5C 53 3C 8A 81 8C 9F 6F
 3D E0 FE 8B 19 8E B0 AE 92 EA 5B 3D 58 CD 0C D8
 F6 7B 96 2C BD 87 30 F5 11 46 73 1F C9 A4 5F 0F
 AD 26 72 6E FF 34 E9 41 D4 AA 17 93 F8 0D F5 EE
 F5 D7 FE BB E1 C8 A9 3E 31 ED 52 BC 28 AE C5 80
 D5 14 77 A0 D5 84 96 29 F3 24 48 78 4B 94 C9 1B
 D4 B8 37 08 B0 A5 A0 84 A8 E6 02 D5 40 C2 D6 B8
 76 7D 52 0D F3 1E 34 D1 27 6A 6F 44 D8 2A D9 02
 08 91 29 6C 65 24 6D 0E 65 FC 27 61 F5 46 5A DF
 FA E5 78 16 5A B8 B8 70 7B 9B 7D 31 78 23 ED F7
 FC A6 DB 2C 72 A6 76 6B 22 C6 C3 4D 0F 99 90 8F
 E4 03 56 07 46 8F FA 6A 1E 2F D0 B3 5C 25 4B 99
 B4 AE AB 3F 44 97 07 28 9A 25 40 39 00 83 BF 3A
 1B 47 24 03 C0 82 43 34 D5 5E 1E 2D A2 BF 97 DF
 57 8E 12 E4 CB FD 42 CA CE 92 B2 A7 40 B6 2A 3B
 A0 4C 27 C7 50 BC 5F 8C 30 2E 05 C9 CC DA F4 3D
 17 15 37 5C F7 C7 66 10 D5 42 0F 2E 06 F9 50 EB
 59 B7 73 CA 9B 61 0E EB 89 B6 AC F3 55 BC 02 0E
 7F 39 2F 87 61 D6 98 7C 9D 78 CB 62 3B 7D 24 FB
 BA B7 DF 11 CF 69 C1 CC 87 D1 96 DD FA 7E C7 52
 C2 F3 AB 2A 89 6F 11 88 75 9F 9D 9C 77 A8 56 A4
 D6 56 45 B1 A4 4D 2B 64 36 91 63 C1 EA 20 44 D9
 D4 89 98 2B 87 38 AF 79 F1 08 E7 61 5B 00 7B 92
 0C 59 D3 BB 04 8A AB F5 C8 68 A4 61 7C 85 41 8E
 30 A6 7E 2C 60 4A 8F FD EC CF 53 1A 70 6D AD 45
 19 43 FA 73 52 42 5B 1E EA 2C 05 62 3F 08 CD 12
 BD F2 6B E4 15 57 16 27 D4 B2 2C D8 81 D9 7F EC
 2D 7A E2 F8 17 D6 76 93 6B EE AA BE 04 4D 1D E9
 F5 6F B0 CC F0 8F B3 E9 66 AC EA E4 A8 D9 1A FD
 F4 DD 16 1C 19 B4 F0 21 BB 98 10 B9 15 32 E9 DB
 DB 9F C8 D6 D6 A4 F5 F3 E5 F6 1F CF A3 46 05 EC
 06 02 61 73 FB 49 36 7F 53 CF F9 5D D0 A6 0C 89
 13 4B 15 36 90 B3 46 5F ED 34 5C 0C 1A 34 11 22
 49 FC D4 45 5E 23 7B 21 6A B4 99 08 78 3A 0A 8B
 A8 4A E2 90 04 E7 5F 03 D9 2A E7 2F A0 A5 0D 93
 9C 1D A4 24 FF AB FC 43 14 E9 0A 83 32 FB 0A 6C
 CE BB FC 4B 30 F7 75 12 53 39 48 56 6A 6A F4 D8
 93 DB 40 05 81 7C 10 ED C2 24 7D 95 81 86 D6 8B
 99 B0 2D 36 F4 EA 10 FF FF 24 CE 36 2F A9 48 13
 C7 8A 99 85 E5 E8 EB F5 E8 DB 82 3D 3F DE 8A 42
 9F 36 D6 CD A4 91 3D D0 FB 48 97 F0 06 28 93 AA
 68 1C AB 31 DD 10 44 A8 2F 71 41 CC A6 09 FE 8E
 FF DE DA D4 AC 0F CD 11 0B 8E 26 9F B8 91 43 50
 C5 35 F1 32 65 21 F9 68 C5 B5 0D 1B 92 B1 53 63
 08 17 84 10 2B 4E 8E 50 13 C8 85 44 B6 04 D1 67
 EB 3F C0 E3 1C 03 E2 2E A7 84 69 3C CA 04 0B 10
 69 1A 79 62 D9 08 43 C2 1D D9 48 75 20 60 03 9B
 15 DE B2 5C D0 FF 0B 57 33 53 EE 93 51 AA 08 06
 0C 9B F5 87 BA 73 CE D6 75 59 0F 2B 5A 28 A9 FB
 29 41 45 67 35 AC 33 58 E0 B2 2E A5 64 12 E5 CF
 63 B2 FD 79 E3 6F D2 30 DF D5 4C 01 FD FF CC CD
 2E 15 33 98 23 87 4A D0 E3 B5 60 91 4C 7F A0 8B
 23 4F 6E 73 5D A3 32 AB 8F F5 BE 89 D8 95 85 83
 B3 C4 DD 89 E8 D9 02 B5 91 24 E5 EA 88 1B A2 AE
 DC 4B 94 6A B4 A0 DE EE 04 59 41 EC 0E B6 F6 0B
 32 7E D5 5F C4 BE 9A E2 AA 32 23 5E CE 1F 1A 38
 46 56 E8 94 6D B3 36 28 61 58 8A D2 04 82 DA 14
 B2 5B B3 D0 0A 14 FD 04 46 B7 CC FC DF 11 05 FC
 FB 6E F3 23 AB 47 27 FC C3 40 EC E1 07 C5 65 0C
 E9 70 11 82 48 46 65 C5 17 FA 02 05 B3 87 0F 31
 A5 C8 88 9A 2D 8A 00 60 7B 0E 9E B8 81 FC 61 5C
 D5 D0 93 8B D7 0E B4 3D 46 76 65 AC 31 69 0D 58
 12 E1 34 23 A9 C9 52 40 B9 11 85 1C CF 53 DB ED
 7D 17 32 48 6D 10 F5 FF 71 36 97 97 A1 8C CA EC
 9E C8 15 57 F2 1F 5F D2 AB 3E FA 37 B5 F9 5F 60
 D3 37 89 6C B5 BD E2 26 08 69 66 11 2E E3 B5 8F
 C7 87 42 AA 80 67 3D A1 CA BB 64 A0 4A 4D AB F1
 2D E8 5E 4B A2 30 08 77 BA 72 1F D8 0C 0C 30 B9
 95 36 0E E3 38 29 F7 07 4D C4 3F C2 FE DA CA 37
 AD 58 44 6A E2 E6 E4 9F 22 1D B0 87 DA ED 2E E0
 FB 49 59 03 71 AB 0C 61 8F 48 E2 D5 EF 7B 14 CA
 D5 A2 59 6C 2A 8D 4A AB 24 9C E8 D3 37 1F C8 C8
 1D 7B 69 83 8B 61 92 FC 5F 46 D0 45 27 C1 1A 24
 ED E0 5D F7 62 C2 33 BA EA 01 E6 A6 A5 44 D5 E1
 0D 07 1E 1A 9A C5 87 0F 89 D5 C9 E5 C2 4D 8F 3B
 97 B1 D9 83 17 B5 64 91 67 5E 72 F4 1D 4C BA C6
 F3 AA A0 27 58 3F C5 37 2D 26 B0 77 2E B7 15 48
 0D D7 1C 73 0E 02 B1 3E A7 66 33 1E 8D 7E B8 07
 BB C6 80 A1 09 0E 84 51 7F 73 0B 56 FB B4 BD D0
 A8 B4 73 6C 93 F4 87 CB C3 90 FB F7 85 4A 51 7A
 60 6A 37 BA 2D B2 F3 69 AA 95 9C A8 7A A5 B1 ED
 67 5F 7B B8 3F 0C 9F 30 63 C3 D9 D3 28 9D A1 CF
 F4 41 45 32 7A 3B 91 08 A6 23 CF E4 E0 D4 D8 37
 B2 51 1A 5B 8D 41 61 C3 B3 98 84 CC 9E 2A 02 5C
 5B E1 37 4F A8 64 D9 AD CD 59 DF 74 37 0A 98 67
 A6 A4 0D 10 F5 26 45 57 73 BD 0F BD 3A B4 E2 58
 78 E6 12 9E 80 15 28 F4 90 91 0A 24 96 F7 ED 46
 E3 20 7A D5 39 55 36 D1 EB E5 AF 22 B1 7C BF AB
 4B 46 9E 34 02 B3 1B CE E7 CD 33 CE 77 76 CF BC
 D4 43 E1 B2 1A 87 0C E5 FB 6C 7C 97 07 B1 FF 84
 89 C4 FD 09 2E 71 E4 30 DE F8 EE 22 C8 71 34 4F
 A2 AF D7 7E D0 97 2A 59 5F E3 4B DF 27 83 C7 55
 4A 50 19 44 DB 70 AA 0C 18 6E 37 13 0B 0E 98 93
 EB C5 22 3C 63 55 1C 9E 5F 88 9E C5 CC 24 40 E3
 CB A1 A4 94 79 C2 A5 29 98 56 3E 79 E7 41 F9 5D
 67 C3 FA C1 64 6C 5A 58 38 6F 8D CF 12 DC AF 97
 4A C6 B8 FF FD 20 F8 F7 41 C7 85 E7 A5 35 BD 2B
 B4 0D FF 7B 79 77 DC 51 D3 7C 5A 43 EA B5 AC 18
 27 87 2B 80 BF EF 88 0F 72 2F 9E 5A 69 05 16 DD
 01 18 E6 DF AC 29 A2 6F 9B 1B C4 ED 99 FD 20 4D
 34 03 41 FA EC BD 2E 50 FE E3 6C 80 30 27 A2 B0
 61 D8 D7 38 AD 6E 7C BD 0A C5 82 5A 81 DF 0C DE
 34 EB F6 7A E5 C9 C2 C7 7C 8B DD 9D F7 E9 3B 70
 96 63 B2 15 A8 D4 03 E4 86 30 D8 A8 08 B0 A2 79
 EF 43 16 36 02 7C B4 48 54 59 AB 9A FE AC 9D 36
 60 90 F0 45 BF A4 A4 EE 91 A4 75 E5 1E F3 FD 5F
 DA 7D 8B 52 E8 65 F0 A4 74 4F DD 5D D3 6F 64 1B
 17 5D D0 C5 5E D1 A4 DB 3E 55 14 83 95 45 7C 96
 BD B6 64 E0 AB 8C 99 17 A2 11 C4 BC C7 00 63 3A
 10 F5 46 1D 3C DA B5 E2 0C CB 69 34 41 07 3E ED
 82 34 8C 91 4F 63 A1 28 5D 71 EA 8F D5 3B 4C 40
 D1 58 A3 26 54 A8 11 71 1D A0 61 BA CB 62 56 9E
 F3 67 35 F4 00 CF 1A B6 73 C3 13 CC 24 7F 3D 4B
 AF 72 BC 05 01 45 CE F9 95 2C 10 3F 3D D4 85 D8
 DA C3 CF 6B F2 F8 AF AA EC 74 90 F4 1C 51 88 75
 E7 7E D8 7C DA 96 11 67 EE 6D 33 B3 95 CD 3A 4C
 E5 32 8F 21 F9 88 F7 13 EC 86 83 4A 3C 08 8D 12
 97 F8 D3 3C CB C0 0A DA 13 34 CA 75 1F 99 0A D4
 2E 5A 0B A6 04 9A 1C EE 0C 47 44 44 E7 DF 5C A6
 D7 2E 7D 94 6A 41 8E 9B DB 5C 07 2E 7D 69 03 63
 4A D1 B4 28 68 54 EE F2 6E F8 F7 F0 92 DA DE 4F
 7A 37 95 BC 28 5A 9B 4E BE CE 07 9F 39 82 D7 F2
 A1 71 96 9B 3B FA 3F 7C 4F 11 30 58 9C 89 6B 49
 F5 A1 96 48 F2 29 A1 9B 47 03 42 AF B7 55 88 EF
 F6 73 69 80 DB 02 7F A0 ED 76 98 54 40 8C 7D 4A
 3E A4 B7 6E 09 62 84 D1 59 A1 00 97 AA B3 C7 13
 05 B4 AB C6 88 0E 8E F5 A7 F3 81 6F E1 27 26 72
 0D 9F DA 61 94 F1 17 D3 B5 B5 4E 5F 7D 5E AC FB
 DC AB 54 04 87 91 6C 47 FE DE 58 B4 4A 89 1A 0B
 52 94 35 1F 33 32 28 E4 1F 3A 9C A9 DE 39 F8 20
 74 E3 3F 62 D0 06 F3 EA 3E A8 F2 FD B2 ED 06 92
 4E 2F BB 5A 9C 94 EA E5 A5 22 D1 33 AF 71 93 7F
 06 12 B7 DD EE 84 AF 6A BA 85 64 52 AA B3 E2 20
 F0 53 6D 46 BE 2C AC CB FB DD 7B EB 2A 0D 6E 52
 9D 70 7C A3 8B 49 2A B8 F9 E1 23 1C AB FE 8A F2
 5E E4 12 A1 E6 CD 31 AA B7 D3 06 D8 C6 1A 77 B2
 39 97 1F CC BB 9E 08 59 8B 99 A8 AB 7F E7 AE 2D
 FB 75 67 E7 48 A7 5F 8D BB F4 C7 5F 99 33 29 26
 6E D2 FC 4E 5E D0 0D F1 44 D8 80 4F B4 46 90 26
 C9 E8 74 FB 0F 0D 7A 0C 36 72 FF 3B 69 11 8C 6B
 3F 01 EA AB E0 15 8D 2B 97 7A 64 C6 9C D6 BC 73
 CC DC FB 3C 34 D8 37 25 11 70 24 E9 BF 1E 59 EC
 9B 00 CD 23 A8 99 42 B9 5D 1C 0A D5 F7 DF CA 86
 7A 65 48 0F 58 91 4C 2C 52 6A 74 11 A8 1E 02 2A
 E5 79 ED 17 75 3D 64 FC A7 E4 C8 1B C7 B8 E7 17
 91 65 A2 DE FF 3B A8 C1 1C 35 B1 1C 7A 7E B8 81
 3C FD 76 F8 4E 2B 71 B1 8A 30 4F 43 A3 DB BF 68
 CA 7D 82 37 9B 0B 05 FB AE 64 5C 87 A7 52 37 4D
 BA B0 70 44 0C 9B A7 C3 4E 95 64 04 04 06 DB C5
 E3 EA B6 FA CE 7E 2C 22 E5 65 A7 E2 F7 2A BA FC
 23 A3 ED 1C EA 9D 3F C8 4A B7 0F 6E 1C 0A CA EB
 9C E3 97 81 35 47 D8 83 B3 F9 07 07 C3 97 41 B7
 19 44 EA 7E 28 A6 D1 4E 3A 09 AE 9F CE E6 FE 38
 86 89 C7 4B 23 15 1F 71 AA 78 5E 8E 41 2B 81 C0
 1C 21 AF FF 43 37 5C 71 42 18 14 6A 41 EB 61 7C
 62 25 82 ED 23 87 FD E5 52 E2 85 06 1E D1 70 9A
 FB 0D 40 BF 1C 30 B3 34 AE 23 1E 3B 78 AF 82 CB
 58 E4 F4 75 06 18 02 1D 9A 9A 31 28 DF 88 64 29
 94 1B 20 84 C1 9F CC 4E FF EE 74 A1 17 25 61 AA
 3E 5A EB 37 C0 3F 44 B9 5A 35 87 AB 50 BD 88 94
 F0 A3 00 48 FB A1 C2 D4 A1 8B 86 27 EB 6D 5D 3A
 17 4C 14 DC 62 81 2B 33 6B 3C D5 23 D4 70 EC 3D
 B8 47 4A 19 C4 86 67 04 2D 6B AD FC FD 20 D2 BB
 19 67 3F 08 AD 02 39 06 87 6D D3 B7 1A 65 99 D5
 9E A8 68 00 98 47 20 54 B2 62 B2 4D 45 C0 BB B1
 D1 45 03 A2 A3 23 87 45 20 0A 7E 2C CB 8B 15 F0
 68 E2 D6 1E DE F6 CD A5 BF C8 6F 43 F9 F1 71 1D
 FD 1A 93 00 F7 4E 1D 8A 85 1E 26 13 A3 73 3D F0
 FD FC 69 F0 FE 17 B3 F0 40 D5 E4 0F E7 FF 87 6E
 1F BB BE 9A 98 77 CC 27 11 85 57 52 BF 43 CE 0D
 AA 29 3A 22 D1 55 48 A9 83 74 11 A1 19 F5 13 73
 83 9E D2 3C B3 92 08 80 65 22 A0 F9 BE 70 4D 42
 FD A0 17 FA 6A 4C 00 45 1A 34 F5 3E CF C0 2C CB
 F3 70 2E 15 90 6D 20 DE 7C 71 B9 02 94 8E 87 7E
 AD B9 ED 4C 89 87 9D B8 96 EF 8B 90 42 EB E9 00
 59 C9 77 CB 7C 7C 1E 74 82 D8 E7 33 77 63 7A 0E
 8E 76 3F C5 AC 4A 34 FB 4C AF B8 DA 2D 0B A9 93
 3A 23 A7 1A 54 8F 88 8D B3 07 B2 A5 20 D5 E3 33
 76 E9 10 D9 56 33 40 09 F3 2D 07 AF 27 50 B4 6F
 C0 19 30 CF 3F 35 7A C6 14 BC FD D9 54 27 04 76
 ED 5C 4D 06 BD 2E ED 20 FC 64 1F B3 40 7D BE 13
 21 FC 05 E4 FF 8D FF E2 AB 5D 21 C4 B7 AA D1 63
 7F 24 D6 05 FD 7F A7 36 B7 8B 9E 72 50 5E CB B5
 79 10 61 96 ED D1 D2 6E 96 58 52 9E 51 4A 04 D0
 9C 2B D9 92 9F 51 FF D2 E5 C2 6D 08 1B 42 7C 51
 41 11 3B 19 2C 66 B9 BD 79 7F AA 7B CE 5C FB 5D
 2E A8 39 17 F6 DF F7 5A 66 F6 3B 46 22 80 B0 07
 67 07 70 62 2C D7 9A 04 41 6B 10 25 B8 23 5A 37
 3E 4E 56 F8 70 16 29 AD 53 4A 7D AC 3F ED 0E BB
 BE 1F E1 1A 46 9E 17 A9 C3 D3 64 BF C6 E3 12 27
 1D 5C CC F8 1A 38 F2 46 23 39 5F 30 F0 E8 90 3B
 2C 07 8C D4 E3 D5 A8 F4 30 9F 00 77 91 61 E1 3F
 21 D7 FA AD 54 38 4E 6F 98 34 E6 22 A4 A0 54 E4
 9D B9 3C 70 CA 38 9C 02 8F CE 37 EE 8B 4F F9 29
 9A 8C C9 2B 56 41 0D 37 60 CE 0A 6B 16 02 DA B5
* End 1051891288 3107140420