* LTspice Encrypted File
* 
* This encrypted file has been supplied by a 3rd
* party vendor that does not wish to publicize
* the technology used to implement this library.
* 
* Permission is granted to use this file for
* simulations but not to reverse engineer its
* contents.
* 
* Begin:
 83 56 34 0C 2F 6B BF 5A 0C B9 37 EF 2B 92 38 8A
 31 7A AF F7 EE 7F A1 DE 87 CD B0 06 97 29 59 A2
 D3 3E 90 46 2B FF 4C E7 13 2E 1C A5 E7 98 92 45
 B6 21 9D 15 69 58 6D E0 8C 69 CB 35 95 1E D7 96
 E8 5E FA CE 8C AB C7 C6 54 0E DC 47 B6 3B C8 01
 CA E9 C2 76 15 95 FE EC 6E 58 D0 FD 38 80 02 52
 93 E2 51 E9 F9 E3 71 2E 1C 47 A7 E2 AC C3 B5 6D
 6C C2 A0 89 00 32 57 80 80 10 46 D6 35 01 6C E4
 40 48 22 28 74 11 C1 13 AD 7B AE 75 53 C6 67 BF
 67 27 BE F8 B2 10 03 F5 EE 02 AA AF 31 43 0E C3
 5C 08 53 7A A3 1B AD 45 52 2C D2 07 83 86 62 5F
 2F 24 97 D9 5D FA 04 C9 DE 84 3D 38 1D F5 CB E8
 B8 DF BC 7E 08 00 FC 1E AC 93 51 14 9A 71 23 28
 98 BD 72 83 EC 8F 88 3E 7D 1C AC B2 D2 0F B5 97
 FE D6 EE 43 E6 30 F4 3B 6C 21 E6 21 55 55 71 C2
 CD D5 5D EB 4E AC D8 9A 13 EB 1E 9A 53 25 59 B6
 73 D0 DF 61 66 FB 17 C5 54 40 38 4E E0 EC 1A 3C
 D5 B4 67 52 2C D1 84 D9 02 51 60 C6 FB 4C 5E AD
 B2 8D 9D C2 41 59 E1 94 37 45 30 F3 2F B2 F8 FA
 D9 21 5F 6C EB 2F 61 E8 09 61 78 26 1C 2D 63 35
 28 6E 89 76 8F 7D 41 1B 21 20 8D 8E 83 7B 8D C7
 A9 E6 C3 8D DA AD A3 9F 35 68 C6 E9 0F 1C 36 2B
 B7 56 9A 50 58 F1 6E 30 55 28 46 06 79 9A D2 81
 CB DB 05 73 4B 2D 0C 23 F0 CC BC DC 50 30 59 BD
 6E 28 44 14 8A 04 27 7D E9 C6 B6 F1 45 81 88 D6
 9C 29 7E 94 DB 6D F5 0E 63 21 BA 5C 00 42 25 AF
 EF A2 60 94 31 D1 75 BC 7A 91 5D A1 5D 63 8D 89
 0A 18 3E EE 78 32 08 1E 1A F1 1F 95 E6 4B C2 66
 C4 EB 05 D8 08 BE B7 E4 FB 53 6C 06 FB A9 B3 7C
 A6 75 D9 FA FD D0 BA 58 95 49 BC F3 25 4B 5C 37
 A9 CF 2F F6 87 7E FE B3 56 96 74 A0 52 B5 79 56
 1C CF 35 C0 D8 11 B5 94 4D AC 77 F3 B5 47 12 8E
 48 14 4F E5 B9 74 31 43 FA 6D 03 58 54 42 4D CF
 E6 A1 C3 DD BA 28 84 7F 9C 3A 58 F1 4B 92 48 69
 D4 E1 28 BD 9F 22 12 B5 81 B6 3A 5B 98 1F EB CD
 C4 77 93 38 A0 9C 49 51 5B CB 82 24 50 C4 EC 3E
 B1 BA 9A 03 1F 88 2F 35 82 88 96 7E 61 65 B2 03
 20 2D 1B 3D 28 D1 E6 0A CF F6 97 E2 70 25 15 D0
 90 A9 01 26 83 DE B5 B2 37 67 C8 DA 90 DC 97 5C
 0C 3B 6E 0A 7C 55 0F 06 C6 41 F8 CA 34 83 C4 26
 EB 6D C5 D5 24 1B DB 4C 9C 47 B6 7B ED C6 E5 93
 2C B5 DF 3B 11 49 72 95 29 F7 86 2C 27 85 64 C1
 F3 FA 9A 00 04 B0 12 CE 60 A7 F0 12 79 00 21 BA
 DD B3 A9 03 51 38 39 74 29 C5 F3 D5 C2 99 92 8D
 33 B1 73 03 12 C3 70 81 04 78 59 F8 87 F5 66 BE
 C2 7A C1 67 0E 53 73 F3 CF 51 D0 12 BA 3A 86 A3
 E1 FB 76 C7 AB EF BB 49 FC 52 85 47 7A 44 A0 89
 A4 B1 3C E0 E8 5A D5 81 77 DA 0C 68 4E 2E 0D 5D
 6A 7C E8 67 5E 56 E0 AB 81 8A AC D1 51 C6 9E FA
 F1 7C 41 9B DE C3 23 D7 D4 11 31 E0 77 8F 23 EA
 7B CE E8 FE C1 21 8D 84 FA 6B 8E DF 56 B4 DC ED
 4F D1 51 AE 89 A8 4B C2 21 3C B1 2A 8C EE 7E C0
 AD B7 BD D1 2D 05 39 89 4D 44 34 DC 94 72 90 F5
 B5 74 6C D4 78 51 05 11 1E 9C D0 FB CE 10 36 2A
 1E ED 06 7D 6E 20 22 73 08 3F 0B AE 68 61 31 BD
 1B 77 CA EA D4 B3 D0 1F 8C BA A0 DB 63 26 6D E2
 E1 8C 57 65 87 13 A5 3B 87 7F 06 8D 4A 1A 13 A5
 A4 D3 73 A3 1F 55 B5 44 5F 5C 49 EA FE 21 98 D7
 28 8C B5 11 B0 C2 05 73 CF 6B C8 FA 95 46 BA 66
 8E 82 4B C4 6A 0C 00 1B 8C 2F 23 B8 30 E9 DA B3
 6E D1 35 68 CF 14 22 A2 6D 37 C0 CE 88 BF 38 D4
 55 CD C0 B7 00 14 4F FF CD B9 DF 04 CB 71 68 15
 E1 43 3F 63 86 0A 68 84 B3 14 D4 E6 3C 5B 14 5E
 4B 87 1F EC 33 6D 08 25 DD 92 34 D4 8F AC 39 FC
 54 61 B3 7A 98 17 45 C1 42 1E E1 1F D8 53 0E 33
 00 87 32 DA 41 C3 F6 E1 5A F9 2E 2C 2F B6 60 C3
 9C 39 5B 7A 1B 30 88 F1 C4 91 AC F9 53 69 54 3A
 A8 63 44 5F FE 1D B5 82 E0 A7 48 01 16 21 03 4E
 9D C2 91 FD AF D4 83 B7 02 E9 F3 9D 57 CE FC 32
 8D 1B 93 0D D3 FC 35 E3 4D 4C 21 F2 40 FE 9C 1F
 6A 5E F2 02 42 D5 56 39 24 9E 87 09 32 81 C5 17
 A3 37 94 A5 2F 83 B2 BF 59 76 A7 DE 1F 2C E0 E5
 94 73 A9 AB D6 3F C0 0B C6 3A 0E A9 C8 87 FA 1E
 8E 3D 55 D9 57 6E 1E 1B 7F 75 D1 E9 C1 7A 23 4F
 98 F5 5E AF 17 83 D2 8D 2A 22 AC 8A 09 3C 21 17
 88 0A 5B 16 75 08 4E 48 44 BD 28 70 F8 FB E8 BA
 F3 93 4E 9E 9D 6C 86 7D DF CA 37 2B B5 C9 CF E9
 E9 41 71 6A 5F 9D 2B FD C2 B8 6C 69 F3 B2 4D 22
 E7 9C 15 01 5F 2A 49 07 37 61 7B 63 6E 00 43 4A
 4C EB 8C 9B 10 27 EE 1A AA 84 E9 CC 92 1E 03 1A
 84 DA 4F BB 72 AF 97 CD C2 60 7B 0F 20 20 50 ED
 F6 5B A7 94 AC A4 04 69 1F 13 86 F5 82 A6 C7 8C
 85 39 78 06 38 87 3F E4 10 C8 64 14 43 F3 22 87
 A2 4B A9 DB 17 0E 1C 6E E3 CA 07 DB BF 2D 55 B0
 18 C6 C1 7C A7 8A DE 7B 7D 4E 62 A7 9D 8A 63 92
 9F 07 DD 4E 66 42 77 A7 C6 A6 EE 50 E5 40 E9 BF
 58 4A 64 29 F0 FF 16 F3 36 0A 3F 3C 80 2F 03 24
 66 BB 16 1D F5 B5 DA E2 D5 9B A9 94 02 52 ED 9F
 42 3B A6 2D F6 FC A2 B9 C8 C1 13 6A 94 0D C5 1C
 CE A6 D9 F5 71 6C 8C EB CD 5D 79 64 DF 10 A1 C9
 BE 46 9D 33 3A 90 E2 AD B7 43 FF 91 25 5C ED D7
 6F 0C 1B 04 BF 8B 18 6D 2E 61 7C 44 17 6D CC 89
 4A D7 67 F5 95 3A 56 12 BC B6 35 36 5F D8 61 EB
 6D FA 54 43 B4 BD 8E CE 8D 65 30 83 28 B4 FF 85
 F0 AA 25 8C AE BE E9 53 73 20 72 25 E2 CD 14 C4
 A7 6D 04 EB 45 F4 D0 4D B5 12 2C 7E 7C 76 54 8E
 D5 7D F6 E8 9F 83 10 60 2A B0 57 EF B7 FD C0 FF
 32 36 A2 39 53 30 DA C1 E1 83 A3 57 03 1E 69 A2
 F4 7B 52 E1 0D 92 78 D3 61 34 9C 23 E5 A2 75 7B
 31 35 92 85 0D 0F 49 28 6D DE F2 DA C2 C6 54 3D
 1B F6 D1 83 91 93 60 F9 8F ED 47 95 D0 8A DB 26
 03 51 2F E6 91 F0 FE 27 52 95 97 77 C2 6E 45 2D
 D0 71 D3 78 3D B0 D9 76 69 5C 56 2B 33 57 F2 4C
 01 0E B9 75 D7 E3 AC A2 B5 69 F8 A3 E7 4B 9D E8
 91 60 E6 2B BD 0E 97 AD 10 35 ED F3 6A 94 AA E2
 87 14 73 27 83 78 C9 28 F1 86 C5 E0 6A 7D 8E 4C
 4A 72 2B CF BA 59 69 46 F5 AB A5 C0 DE C7 10 73
 8A 04 82 AC 06 8D F4 FE 49 AD 86 E0 06 18 2C 17
 E9 FC B3 0F A8 43 84 5A D8 57 2B 47 06 FE 0B C1
 6B E1 7A 9F 77 18 D8 E9 E7 BA D5 EA F2 7D 4E 91
 B5 F2 CE 5C 21 B9 2B ED 8D 96 99 FC 8C A0 7D E1
 1C 9A 2D 3B 3B 22 35 7B 46 02 36 1D B3 34 73 4F
 5D 9A CB B9 39 B7 37 C8 77 48 C7 A8 59 93 7D F5
 97 30 03 A8 81 B7 83 A9 46 2B 7A DE 58 CF 7B 0D
 CE E0 DF E5 04 19 15 14 8F 97 7B 6D C9 0D DE CB
 34 D9 CF E1 9A 7D 88 08 23 7C F0 01 0E 41 30 2C
 F5 1B 8D EB 65 E1 B8 DD B3 F4 5E D1 4E F1 6A 69
 47 AE 37 DC 56 B6 80 0A 92 7B 6D A6 7C 7D 98 A2
 CA 44 83 92 FE 18 57 77 19 E0 A9 91 FD 2E BF C2
 0F ED 88 F3 26 D1 90 8C E4 A1 CA A7 BF 30 C3 D4
 7A 56 97 C7 91 F3 93 0F 6B 5D D6 50 0E E2 D9 C6
 6D 91 85 4B 0A 3E 47 FF 40 30 0D 5A 82 6D 0F 9E
 F5 85 DE 2F 8E 39 63 C1 CC 5C E9 B7 EF 4A 45 12
 BF 35 97 87 C8 D0 A9 03 6B B8 6D B0 94 FC 26 D6
 68 AD 8D 7B 0E A7 9F BA 73 40 CA 68 00 BB 06 BD
 77 30 AE 0C 72 76 32 DB ED 9E E1 5A 3D DF FF 63
 54 1D 50 46 91 12 E1 49 25 63 95 24 03 C6 9C 5E
 91 09 B6 43 44 54 22 CF C9 6F 7F 45 ED 6C 62 D2
 1D 98 6E B2 0C 3E DD E0 2B 4A 88 8F C8 8F C8 4B
 A1 78 09 99 4F 7A 14 72 C1 8C 22 D0 92 85 07 DC
 7B 27 1A 2E B5 2A 9A D6 A1 17 5D 1F BF BE FA 6C
 0F DD CB CE 7B C3 5A 71 F5 7D B2 79 08 22 FF 03
 7B 50 4C 55 BE E4 D1 02 C3 6B 34 D3 DA 98 20 62
 3E 77 25 7E 60 FB BD 1A FB C6 0D 4F CD 2D 19 A9
 6A 79 54 58 3B 5E 09 2D 1F F8 83 59 7F AF 71 77
 7E 1C 47 DE CE B3 73 70 F9 9F 5D 61 E5 20 D9 B5
 F6 DD E1 C0 54 E6 CF 30 26 9D 4B B6 49 FF 6B 15
 96 2A 92 66 A1 40 9F 44 05 B9 0D 62 F3 BA 88 5D
 EF 75 15 1F 42 AB E4 E1 35 F5 FE 21 96 FA 42 7F
 7B 33 75 75 4F 50 4A 3E 57 A3 2F C8 D2 23 69 D2
 A0 3C A2 E0 4F F4 6D A3 F8 91 A5 B8 83 FD 87 3B
 C3 CE 82 97 91 B8 87 25 55 E3 4D BC F3 F6 F8 D0
 32 E2 46 AC 2D A3 33 A2 16 10 8B A3 1E 04 31 8C
 D3 F5 95 E6 F2 74 21 2D 81 B0 E3 5D 57 23 80 3E
 A0 1F 7F D0 DA 59 A9 69 47 98 D4 18 AC CD 5A A1
 89 4A 2F C3 27 01 14 E6 14 91 CB 3E 26 12 40 37
 13 AF FB D3 93 B0 32 E6 75 95 0D D3 02 7E 48 42
 77 73 A1 17 9C A3 2E CC 10 6B 80 B0 6F 4F 09 42
 E8 96 92 4F 3D FB A0 68 A3 10 62 0C 28 4C 6A FA
 8A 50 D7 14 F3 B7 E2 34 D7 9E 4C E1 BF 37 95 4F
 41 2A 99 0C D0 76 F2 89 F1 AF 09 64 E6 13 61 84
 87 6F CB 2D CB 94 B4 19 AD 16 F9 B3 B1 C4 31 B6
 02 07 D3 0B 8E F1 89 CC 61 6C 45 E4 27 62 24 E3
 14 ED B1 F7 8C 73 A2 13 19 6F 72 F4 92 66 60 33
 24 33 B8 8C 1C AD 62 2C 80 C8 BD 05 BA 4B 56 18
 5D 0F 3B 87 A1 CA DB 20 CC 1F 35 7E 3E AA 0B F6
 F7 CD 02 4B 45 7F C7 E7 C0 40 95 05 85 0A 19 C2
 8B 31 39 F6 53 31 31 89 BF DE 4A B4 7C BE 9A 2D
 D4 A0 B2 53 56 F1 E9 94 1C 42 7C 59 D9 81 23 77
 C2 04 70 79 7F 7A 61 57 8A C4 BF 97 1A 94 E7 7C
 2B E0 56 51 1A BF 6E F6 72 0D 6E D8 C3 9E D5 35
 EC B4 60 4F 33 58 78 D6 22 77 57 1E 7A 1A 69 91
 01 D4 01 E4 24 AC 0B 01 AC 02 EB 4B 4B 97 81 64
 C4 7F EC BB BF 51 64 AE 3C D9 28 17 7F F2 61 CF
 56 7C C2 7C E5 6F 78 0E E2 D5 59 7E 8D 1F 4D 52
 A9 D9 BF 4D 45 11 98 35 75 29 B4 32 DF 01 F5 DA
 87 FF 5B 65 7A 73 8C 80 58 B6 07 5B FE 06 A7 B0
 6D 3A B9 3B 03 85 93 42 72 AF 30 67 74 D7 9E 7E
 8D A0 65 7B B8 C6 CC 50 B1 9C 12 A5 89 52 DF D8
 00 AE E6 99 38 3F AE 39 79 9F 3F B8 C5 B4 94 DD
 64 DF 8F 8B D8 8E 30 27 3A 7E 54 3E 54 F9 06 BA
 E1 E6 7C 61 15 B8 C5 25 54 85 7C 46 5A 51 34 5D
 8D F7 74 CA B8 98 19 54 7A B8 6F 0D 7F 61 E1 75
 86 BD 94 AA F3 EC 55 B8 32 FB F5 F2 74 0B 08 41
 F2 30 B9 F8 61 87 B4 55 51 33 82 9C 92 B0 F6 2B
 F9 4A 8C C8 DF 29 C5 6B C2 C4 D0 A2 1C 0E 03 84
 B8 23 86 0B F1 46 B2 2C 5C 62 E3 AB 32 BF 44 CE
 9D 7F 51 6F D6 BE 3F CA 47 57 4E BD 32 A6 0B D8
 5E 51 90 9E A1 3A C8 ED 0E 61 F6 18 CC 1A EA EC
 12 77 79 AA 8B 3A 3F 8F 5A 6D A9 20 1B 7E 0A 67
 0B 15 AD 28 7B 56 FF 6A 60 BD 52 47 C3 4A 06 13
 D7 28 E9 3A A2 8F 98 A4 4C 24 A9 AA B0 1F 49 4C
 55 12 D7 06 1B E4 C5 14 A0 90 CE 02 39 01 F0 9C
 19 93 E9 67 C6 F5 67 2E 0E C4 B0 29 FC 7F A7 F6
 9C 36 DC DA E8 BF A1 CB C2 F1 0F 20 A4 19 51 E8
 0C BB EE 91 A1 51 52 89 DF E8 01 41 B1 46 E1 79
 F6 61 3A 09 90 4B 76 B7 F0 77 1B 20 A3 E2 CD 08
 A7 73 8E 3B 5C 97 D7 B2 E1 B0 03 60 FB CA C2 B7
 22 57 F8 13 11 63 F7 65 D6 50 B6 9B 42 84 3E 31
 CA 44 40 E0 2E CC A0 9A 84 36 2B 88 C4 28 B4 B7
 AC DE 8B 00 96 0C 20 28 98 13 94 EA BC 3D C0 B3
 41 67 D1 4A 22 A3 73 6C 8F 24 97 A8 9D A7 FB EA
 F7 BC A5 92 40 F4 1A 60 69 E2 ED 07 C0 26 59 C3
 2B A9 4B CB F7 B4 70 F9 D5 C7 CE CC 56 6E 39 ED
 12 0C 02 A0 E9 A6 1C D7 83 59 0F E2 75 6C 97 43
 04 F2 9C 83 9A 79 C6 7E 36 D2 6E A7 38 E2 25 74
 0A 14 98 22 9E 4C 17 B4 7D AA 4A DE F1 8B D0 A5
 14 91 5F E5 B8 02 03 60 BC 71 28 71 35 EE DB 38
 8C 9F 36 FB E6 94 23 2F D7 89 6A D1 4B 73 B2 75
 47 75 EB CF 66 33 73 42 60 73 F0 80 36 68 C1 82
 7C 38 49 25 E5 A5 03 A7 47 DB 12 AF 25 7A 47 F5
 0E BE 08 15 F3 22 F9 36 62 6B A6 A9 D5 F3 88 C4
 E5 CD 15 2A 1D F0 5E F1 55 7A AD 6A C3 AE BD 5F
 E2 17 22 00 68 0B EF CF 70 1B A9 1C 22 ED 8E A2
 E3 2A 2E EF 0F 40 6E EE 21 70 8A E7 E0 D8 B1 7B
 C4 62 1F 94 9A 4C 18 18 CB A0 1B 3E 06 FA E6 F5
 97 F4 F6 D9 BF E4 BC 05 02 96 B4 6E D8 7B 97 7E
 CD 89 06 EA 4F 14 C2 37 81 91 01 86 96 DB 52 8F
 B6 B3 8E A4 62 7F 6C 88
* End 1579992449 2379464064