* LTspice Encrypted File
* 
* This encrypted file has been supplied by a 3rd
* party vendor that does not wish to publicize
* the technology used to implement this library.
* 
* Permission is granted to use this file for
* simulations but not to reverse engineer its
* contents.
* 
* Begin:
 D8 05 FA B5 80 60 E7 13 8B C9 98 CE 60 2E B0 F6
 FD 49 15 4E 4F 20 D3 95 EC B6 38 F0 B7 2E B0 ED
 86 B2 96 18 F5 A3 3F C1 73 EF 3D 27 6D 7B D8 C2
 95 F4 B1 46 64 D9 18 C1 A7 61 2D 93 DD F0 A6 82
 16 10 DC 71 24 11 7D A6 41 27 7E 2E 87 44 6E A8
 C3 6B 5B E6 9A 7A 53 A8 83 B0 B1 33 1F 7B 8E 88
 03 6F A5 90 F8 E9 35 EA EF 56 2C B5 8F 79 04 AA
 1B F3 30 58 F0 66 E6 9A 0F EA 68 92 F4 37 85 7B
 95 E5 C9 F1 D3 B2 89 A0 23 45 F6 99 DE 66 B2 A4
 D2 D3 51 68 42 17 A9 80 AB 44 8B 5E CF 82 3E B1
 96 AC 30 2B AD B9 E1 86 C8 F4 AD 47 DB 8A FB AC
 4A 85 6C E3 41 19 7F E7 57 05 2F 0D B5 33 85 B8
 E1 35 94 8B 16 63 46 C6 03 ED 96 3C 6D 9E E5 9E
 2A 87 06 2B A3 66 67 3F 3F 51 FE 6A B0 DA 66 7B
 D5 79 F6 C9 09 FE 6D BA 42 F6 1E C3 07 69 23 77
 9E 87 B4 87 6E 67 C3 F9 51 6B EE BF 7A FC 86 BB
 E3 1B 08 3C 4F 07 67 32 D0 C0 14 5F DA 54 BE 19
 53 65 4A F5 FB FF E2 FD D5 C8 FD 24 79 55 E0 6A
 1C 63 6A A2 1A 92 EB EF 34 CB E3 E7 C3 D0 0B 2E
 D4 F1 D9 0A 93 38 F8 D3 61 B8 DD A5 53 A3 13 73
 35 1A C3 9C A8 E0 59 84 CA 3D A9 BE 23 05 09 EF
 5C 6E 4D B3 7C 80 CD 39 D4 C0 0B 12 19 F5 72 FD
 DE 8F 46 C3 15 5E 46 BB DC 18 A5 0A B7 0F 5E 78
 06 F4 74 55 AA 2B 7C 7F 6B 4C DC 8B B9 DB 15 4A
 E1 23 0B 01 30 B9 C4 48 D8 A7 79 01 DE 32 14 01
 03 3D F7 AC 4A F0 E7 EC AD 28 98 3A 32 CC 1C 2F
 C5 E3 15 DA AB 35 B4 19 57 05 83 2A 9E 5F 96 CB
 43 8B 61 BD 97 9F 27 AE A6 A7 3D E6 48 C5 ED A3
 1B 74 69 2A D1 50 F1 94 67 73 42 41 04 E9 7E 62
 EE EA E0 9F 0B 62 98 B8 B3 06 B6 08 91 43 48 2D
 FA 07 1C 37 AA 54 FC A6 5D 04 6B 27 74 A2 14 8F
 99 FE A9 39 FF A5 BF CC 11 E7 F9 7F 66 8E 9C FE
 8F 90 92 A2 43 2A AA C4 29 DF 57 C4 0C FD DB B4
 70 4C 95 A8 ED 8C 87 D0 2B 76 1E 26 12 50 A2 C4
 7C BF 1F 9F 4B 10 FB E9 D9 B2 77 89 E6 D3 05 F8
 A7 5A 86 51 A0 51 9F 99 BC CF 78 16 E2 E3 5C 64
 B8 DC 68 1C 1D 3B 2F 03 48 B8 98 23 EB A4 AD 9B
 F5 DF D6 28 11 67 07 F5 E5 C5 D6 9C A8 F7 6A 39
 64 F2 97 F9 51 98 4E 92 04 34 18 31 E0 89 8C 40
 28 A0 12 FD A7 C9 45 BF 66 A0 34 C0 66 D7 FB 8D
 F0 05 FD F3 41 82 B4 22 3B D5 96 DB 38 DB CD FE
 11 0D C6 F3 A9 26 2C 95 02 EE 48 8D 58 08 1A 3E
 28 A4 AC 4B 0B 75 BB AE 6F 5D 16 99 4A 74 1F D7
 51 A3 19 EB 3C D6 64 A8 05 FF 1E 1D FE 96 78 55
 4D 14 B3 C8 1D B0 C1 9C 0E C2 59 BE EA E1 2A EF
 D1 95 12 BB 65 0C B7 61 A3 7A B2 B0 08 E2 8A 85
 98 5F DF ED BA 96 F3 36 25 DA CB 2F 99 44 0F 9E
 8E D0 A1 40 5D 51 D7 B7 EF 76 48 68 9E 52 A9 23
 4D F4 85 78 DC B8 38 6A 6D 35 75 73 97 DF DE F6
 55 73 14 5E F5 89 24 3C 2C CA 46 5A 9D 13 78 4F
 37 82 28 91 87 1A 42 99 EB 3A 1A 99 8E EF AF 2D
 6A 67 FB F0 1E F1 96 23 17 5C 77 A2 E5 29 BF 6E
 59 42 72 9F 37 79 AE 4C 72 C0 A2 C1 49 0F D2 8A
 F5 66 E4 7F CA FB 82 4F 9F 03 E0 44 DC 6B 4D AD
 0D 25 20 43 66 B1 A6 61 66 91 0B CC 81 46 AA 9B
 79 23 41 F1 35 8F 60 0D F2 13 2D D8 82 D4 73 7E
 E8 F6 FC 25 E7 11 A2 A1 67 B3 20 73 09 CA 65 8A
 AF AD FA BE 36 BB A7 43 DF CF 6B 30 76 56 C6 37
 F9 C3 F5 AD 80 69 DD C6 BF 9E FA D0 23 32 AD 49
 BA B4 7F 17 A5 7D 0F 30 20 57 90 73 B5 20 B1 7A
 AB 33 55 A1 CF 00 CD 49 80 33 A0 7B 96 AE 88 4A
 F0 51 C4 5E 61 67 56 F1 40 FD B7 39 2B 60 D4 7E
 9A 42 E2 1A 1C 01 C1 ED 91 B6 22 30 9C FB B9 8D
 EA 9F 63 14 AE 9D B5 8A A2 F3 80 43 99 0F 4D 80
 A0 A9 30 9B 8C 01 02 13 AB 33 75 E4 7D C7 47 55
 EF 5A 64 8B BD F7 8D F9 53 21 07 DA 5C DA 10 DB
 C7 FD 4A 33 F0 91 6E F7 32 9F 9E 7A 77 AF F1 33
 52 9D 4E 14 08 1E 84 CA 4C 7F 24 9A 0A 25 9D 56
 BB 6B DB 6C BA 31 46 70 CD ED D8 1A 2A 16 CE 61
 71 85 DD A1 30 8E 4E C2 AA 6A C0 14 94 A3 8D 76
 04 A3 C9 0C 18 1C 4F 23 4C 4A AF AD 4C CD C3 AB
 F4 44 2D BD DC 6A 7F B8 C2 C8 01 0C 78 0E 0B 8D
 40 05 66 AD 3D 33 10 3F 80 32 8D 1C 9B CD 52 D0
 27 F6 3F FC 96 08 35 83 00 79 11 47 64 16 48 C7
 2D 7C 3A 47 79 64 0D C3 C6 2E 1E BF F0 A0 67 AB
 42 7A 14 E7 51 A3 D0 D9 15 74 08 35 C0 C5 14 64
 B9 F1 9F B0 E4 B1 2B A6 68 A8 9B C1 41 2D 8F 03
 D8 E4 D1 A6 12 75 7A 4B D5 8B D8 10 31 1D B6 71
 6D 2F 55 9F C7 70 C5 76 F4 A2 A9 A5 BA 32 7C A1
 39 38 C5 AB C5 44 68 96 C6 9A 8A 0E F5 98 DD BD
 E8 2F 9E 96 B0 42 4F 55 FA 4D 2A AF 90 6B 02 FE
 AA 18 38 0F DC 67 38 4E 2D 9F 11 ED 9E 38 A2 48
 D4 4F 80 9F C2 BC F9 26 A7 17 A0 7C DC 32 28 3A
 F1 86 7E 36 0A 94 E8 5C D1 8F 49 16 8D E1 0F A6
 52 7E AA C0 07 83 98 57 75 BC 9D 03 D4 11 B3 2A
 4A E0 88 7E C9 20 C5 D5 10 F6 48 1D B7 D9 81 BF
 9B C3 23 B4 8D 73 1C 1E 2A 82 38 3C 77 2F 8C 5A
 E3 79 F2 BC 95 DF A1 8E 20 AB 11 50 DF BE 60 E1
 FB 51 8B 1D EE 0D 4F 4F D7 1E 85 70 D5 BF 0A 43
 C5 F8 89 06 40 26 9E 95 9F 80 5F 89 A2 AE 3B 8D
 E8 58 B2 5E 3D A3 1E F9 24 F9 90 8F FE 9A B5 78
 1D 52 CB 20 8F 27 4E 7E 6D A8 EE FA E1 39 B3 A3
 56 8E 2D 6A AC 68 2A 0F DF EB C1 F6 6D 25 6E 44
 5E 9B 2B CA 1D 4D 0C A2 78 07 6C 92 D4 12 7E 68
 E0 B1 9D 6E CE 38 35 C6 68 EE 38 48 A5 49 85 DD
 78 59 38 A0 CC CA E5 B1 11 7A A9 64 C7 F5 A9 7C
 7E 71 1A 66 26 34 CA 3D 54 39 ED 4C 35 F1 01 BE
 15 44 39 26 2C 58 B6 48 B6 A1 09 12 F1 0B 34 2A
 8A D0 EA 7E 07 BD 00 E4 88 D3 8A C2 4D E5 45 B2
 DC 20 DD 0E D4 A3 FE DC 5E 45 65 32 68 EF 00 53
 46 8E 6F 1F 03 8A 9D 3A 64 A6 BE F6 6B 3B 0A 78
 42 06 D0 40 85 1C CC B6 C0 D8 E4 6A E1 B4 E6 3C
 07 45 BA 70 35 BB A3 0B 43 94 2A 8A 3A 46 3E 56
 A9 72 ED 1C E7 78 08 79 C1 C1 BF 96 DA 93 25 04
 76 A6 7F 20 83 08 09 2B 38 AB B1 CD 46 46 40 ED
 AA 94 71 43 E7 A0 D9 6B 00 59 2F 38 B4 3F 7B 4E
 21 CE BE A6 65 62 47 EA D7 86 2A 05 0E 16 07 33
 04 A0 2B 86 DF CC A3 7B 77 47 88 02 29 A6 E3 6B
 8F 0C D3 0A 1C 2F 3C 5E D3 BE F1 67 E0 02 12 B3
 16 11 D8 C7 BE 60 14 E7 62 C3 B6 17 64 59 12 C8
 87 FB 72 54 88 ED 0E EB 01 F6 1B F0 66 ED 8D 92
 A7 38 73 8D 5E 7C 60 8D 76 8B 01 5E 2C F6 A3 12
 04 E5 8C 19 A9 68 50 A7 26 B7 F6 B7 98 05 39 16
 B6 24 C7 00 BB 2F 57 34 83 7D 62 DE 06 ED 32 30
 A0 83 77 6B 1D D5 11 C4 65 4A 7E 02 22 9D DB AC
 45 1F 3E 0B 43 92 2F EC 13 F1 BB DA 26 18 62 AE
 49 43 A9 78 A0 20 F5 0F 09 8E 03 65 6B C6 93 AE
 2A 1D D0 7F 25 9A ED 3A 81 BC 38 0D 6E 72 84 DE
 5E C4 79 D7 75 DD 4E 3D 84 15 1B 7F DE FD C0 41
 CD BA FE 27 57 A2 B1 E8 00 9A 7D 9B FA DF 0F A3
 F5 3A F7 BF 25 5F 27 67 E9 A8 6D F7 88 14 A2 94
 16 FB B8 C9 A3 D2 96 F2 BB CC 06 58 F8 05 47 B7
 D0 9D 3D 69 92 9F 60 F5 93 87 49 B3 84 38 92 D4
 0A 70 DD 22 11 EF 29 22 A3 56 C1 A2 FA BC E0 C4
 2A C3 A8 88 7E 16 7D 76 14 47 4A 7A 1B 3D 4A C5
 E0 2D 85 EB 26 C7 64 07 97 41 17 C6 A0 13 01 09
 C2 DB AF 49 40 28 8D 6E 6F 42 9A D1 A9 1D 2F CB
 D2 49 4E 61 95 9D 85 BC 97 96 80 B3 B7 41 1B 4A
 B9 14 A5 D0 E0 2D 66 5E 75 F7 08 6D 92 31 CD 51
 5B 5F DE 1D 2A 48 F7 AE AE 79 2C B9 DE 93 C6 87
 92 38 09 1A 47 1F 29 D5 5B 32 6B 14 81 BF 59 0C
 38 C6 72 6B 76 00 67 B0 D2 92 7A 5E B3 7F 85 6E
 92 86 1D 24 F5 5E 55 B4 63 C0 13 3B 64 F9 5C 61
 B0 9D D9 27 D1 76 B5 BB C8 4B 6F 64 DB F6 D8 64
 26 9A CE A6 45 12 66 81 99 2C 52 94 BE 4C 26 F9
 45 3E 34 49 5C 4F 2B 0F CF 84 AC F4 47 75 9C D8
 A6 F8 43 D2 B1 1A CC 6E 34 F1 8D 4D 64 B1 AE F1
 D0 3F A2 06 19 E8 96 95 A1 9A 13 8F 44 FB BF 7B
 20 A7 34 03 BE 53 E1 2A 13 16 78 43 A4 53 F7 1D
 47 75 87 1A 53 43 97 AF 8C 1B 20 E4 13 05 17 3F
 1D 16 55 28 B9 C2 B4 10 EE E7 85 0A DD 22 D4 BB
 98 8C AC 66 F4 CF ED E9 DE ED 0A CE B3 00 50 6B
 B9 1F 6A 16 6A 44 63 0C 0D 8E 4E 43 F0 9B 8E 1B
 15 A7 F2 48 0A FE 64 C0 0A EE 6F AE E5 0D A4 5B
 DB 92 BA 03 25 9D 6D 29 CD 13 A2 6A 35 64 24 DA
 10 B4 A2 62 5A B9 66 5C 66 54 5D E6 07 D3 9E D3
 90 E0 71 26 4D 33 D9 5C 1C 0B 7E D6 EB C7 25 34
 AC D7 49 75 58 90 F4 DE D7 47 61 30 70 4F 6B 45
 F8 21 84 AC A2 CC E8 C0 CD A7 D9 77 DE DF 1A 02
 3E CB 11 8A 63 91 F9 B1 6E 25 F9 F3 C1 7C 07 DE
 01 92 E2 50 98 04 C0 66 E7 E8 68 C8 86 68 71 A5
 68 E0 2F 1E 06 7C 88 42 29 83 BD A6 68 45 54 2C
 53 97 0A 7F 41 88 6A 1F 31 03 A7 64 51 DC 21 2A
 33 67 EC 57 23 52 3B DA D5 3E 62 77 99 6D 0C BB
 32 0C 04 F1 84 2A 56 1F E7 DF 99 29 B5 62 36 43
 5D 50 49 3B DD 47 51 3F A5 DD 17 25 EA 58 73 90
 C6 3A 48 77 E4 8B 38 8F 02 E3 55 3B 9A CA 9E 98
 7D 17 AB 86 19 83 5F 9A 01 48 C2 7E 9A 7D CD C4
 3D 95 CC 46 17 AF 7D 5E 29 91 E9 03 84 9E C4 3D
 E4 8A 81 30 C7 C1 60 9A 8A B4 C3 C7 12 04 15 DC
 15 D8 5E 94 2B 33 01 58 53 F8 66 45 CE C1 53 ED
 02 93 31 6D C7 CE 6B BE 1D 46 0E 87 A4 48 90 4A
 F4 39 20 7E F2 B6 EE E3 9D 6A 41 88 5C AE B4 74
 EC 69 BF 3B 66 CF 35 14 BE 32 22 20 85 FC C5 8F
 21 84 2A 24 68 A2 C4 F2 F0 C2 11 56 86 3B A7 E8
 11 6A B5 C7 76 76 AC 86 C0 70 E6 28 95 FE FB 0B
 D0 35 26 59 EB BD 1E CD 1B D6 6E 1F 09 E3 7C 4E
 DE E1 00 63 41 54 B1 F4 F6 D9 0A 24 52 5B 52 70
 43 57 E4 E6 36 2B 2E CD 4A D9 4D A1 93 BC C1 AD
 4A 6B FA 8F B7 66 51 4E 07 75 BC C5 28 88 DC F1
 2E B5 C9 F0 54 89 80 A0 53 A8 81 FD 66 5C 6D 2F
 23 77 9E F2 48 D2 03 8B 02 74 32 44 F1 C4 3E B3
 8E 6B E6 35 0A 4F 7F EB 64 62 FF 6C A8 D0 E7 DD
 98 4A 2D B2 C7 51 EC BE 62 98 7D 44 E5 6B 3B B0
 A8 9C AD A4 0E 5E 32 49 03 C1 6A FD CC 56 AA 59
 6C 68 57 04 C8 78 FD FF CF 7B EA AA E4 2D C7 73
 75 25 FB 16 67 6A D8 0B DD 99 A9 05 43 8E F9 BB
 9C 6B FB 6A EB B0 8B C7 28 22 BE 64 D6 DA 68 DA
 97 2D DE 31 B7 CD 6A 79 52 68 59 DF D4 95 7E 77
 9A 87 02 45 AB B6 CC CA 0A EE D2 3A 41 7C 42 90
 F6 88 EC 75 F1 35 AA 15 65 EE 1E 59 C0 9E 60 23
 12 AE 92 2E 6A C0 04 BA 51 A5 AB 67 8B 1B F0 79
 13 BB 2A F3 75 17 29 46 7E CE 3F 73 67 0A AD 89
 41 A2 50 BB 20 07 50 AB F4 B6 BD 58 61 CB A1 09
 2C E4 2C 77 9E 11 9B A9 ED 7A E1 75 48 E0 05 D3
 11 7B 59 23 28 67 94 8C 5D 8B 64 64 29 6B 61 8C
 46 A3 5F C8 FC B4 EF 58 43 B5 28 A4 56 A1 63 0E
 17 F1 B5 F9 59 5E 32 C5 D6 A7 F5 F6 0A 10 D1 89
 1E 5A D7 0D 1F B8 33 15 AE 18 40 1D D6 5D 6B 5C
 4E 1C 43 20 37 53 A2 AA 1D 60 07 63 87 52 F2 59
 9C E8 89 33 E1 77 2B 90 E4 A2 B6 71 47 9E D6 E9
 D5 5B 66 55 59 78 D0 D7 92 BB FE 0E 6F 93 93 74
 42 F8 6D 1D 5C 5B 1C 51 B0 40 C2 14 F3 CA 43 F1
 65 3A 5A 7F 4D 6D A1 45 0F 58 78 3E 0B 59 4E 60
 57 9A 23 07 98 A9 81 79 A1 FE B7 51 3D 5E CE A5
 1F D6 92 8A 1A 70 94 0A 8E EB B6 52 A2 B3 A8 44
 81 FB E9 76 B4 92 2D AC 66 3D B9 50 56 EF 8B 0E
 B5 7D 28 5E 82 23 A4 A1 C6 78 B6 14 2F 1A 79 B8
 98 36 41 DB E2 60 C6 EE 87 81 33 BD 43 74 CB F7
 CA DE 0A 33 C5 D2 AD A6 45 F0 4E 25 DB AB 3C 3F
 2B DA 90 D8 0B B4 45 18 DA 03 6F 45 26 AF C5 D6
 84 73 F1 D7 0E 42 D2 7A 74 33 E0 BC 21 91 DD C0
 4F 42 89 0B 23 50 5B 00 D9 F3 27 CF 0C 8D 54 5D
 66 80 C7 91 DA C2 48 6A D3 57 E4 72 BF 4C CF 3B
 11 5A 83 58 59 87 0C 9E 38 00 91 61 7B 09 7B 3B
 B0 63 04 2B BE 42 B7 B3 6E BC 75 50 12 E7 18 76
 68 2F 3E 49 6B EC E1 EB 47 BA 07 29 31 5F F3 E5
 97 17 67 13 91 11 89 20 69 AC 35 22 63 CB 67 BC
 07 19 83 BB 0A DA 05 EA C0 31 B3 2B 66 1B F6 AF
 8A F7 CE 4B AF 32 30 2F 3E AC 7F 49 66 93 F8 F4
 1D 72 EE 5F 50 F2 BD 1E D0 80 DD 96 44 8D E5 F1
 44 90 79 35 8A 5F A0 07 7A 78 80 91 26 3D 4D 3D
 96 F4 39 50 BF 23 A6 46 00 57 99 17 7B 70 00 AD
 0B B0 E8 DD C3 5D B3 A8 09 54 16 A7 90 F3 A4 2D
 B5 FF 9D E9 A7 2F 2A 6B C5 3C F1 00 5A FE 65 B6
 EB 5F 11 1B 53 9B 2C 1F AB D1 14 00 2D 77 34 0E
 FA 7B 3A 54 87 4E 48 AF D9 18 1F 8B BC CB 06 08
 E1 35 30 8E 68 2B 0A E5 00 B1 BE 15 DE AA E1 AE
 45 FA 29 2C 99 D5 52 69 8A F6 ED 0A E0 17 F1 89
 06 E2 7B 2B 72 0A A2 87 94 31 FD 47 00 3A 88 0A
 70 FC 79 64 B8 17 C0 5D 46 95 C6 D5 3A F1 61 7F
 3C A6 39 9A 4A D2 09 29 84 F8 F1 4E 37 B2 A6 4C
 8E 83 B4 12 A0 5D AD 2E E3 F4 A0 BB 6B 77 61 34
 5F CA E5 D2 95 66 ED FF 18 D6 4C 90 AB 66 F7 2C
 47 8F 2D 1E C0 31 61 08 56 AC 6B 88 F8 C9 16 35
 75 11 73 5F 07 9D F4 6C 7F 32 23 CB 2C A3 02 9B
 D5 6C 3C 42 53 36 ED 3F 58 F0 28 95 18 66 DC CC
 CD 37 CF 36 6F 09 2A 09 64 88 11 AE FD 98 58 E7
 BA D1 F5 72 58 B1 F2 0F AA D2 D7 05 FE 6C DF C5
 40 8F 2F 89 7C 5C 5A 91 60 E8 ED E3 BB 50 24 94
 C1 5E 10 11 D4 88 9E 20 E1 F5 06 D5 93 B7 4E D1
 47 B5 54 A9 8A 01 41 FD 21 10 35 A9 18 B7 D8 86
 C1 D7 CB 14 CD FC 35 0F 9E 12 04 84 E3 89 C6 03
 F1 49 1D 8C 72 71 A4 EC 50 9D 3B 6C FD DA 98 E1
 D6 44 36 A2 C9 F6 DA 13 30 4E 92 A8 92 9C C5 09
 7C 33 D9 CC D9 04 40 11 D4 94 A8 E3 4B AA EA 68
 4A 27 A7 BC BD 87 3B D8 06 3B D7 EE 4B 00 7E 88
 69 F6 8C B5 9C 3E 6B 53 8E 00 C1 77 2A BD A2 90
 8F 1D 2A EE E3 1C 4D 91 98 DA A2 DF F6 7D 77 1D
 19 E0 35 2C 53 A1 B5 9D 35 B5 ED 6E E9 F0 A8 99
 4B A2 23 94 86 37 91 88 76 C2 39 51 4D 84 8A 4F
 44 44 37 AF 7C 8F F0 95 5A 43 A4 8E D9 A0 33 02
 05 8B B5 DF 01 4F 71 73 09 94 ED 51 7F 24 72 BF
 D5 06 0A 1F 1D 77 50 91 B5 CD B5 1E 45 34 5F CB
 DE 99 40 AD 48 80 C6 D6 02 CC E6 5C 98 2D F2 1B
 9B C3 6D 4A 6A 21 05 44 2F 59 DA 65 FA BF E8 EB
 2C 6E 4A 6A A1 18 80 EE BD 3B B0 98 58 9A 26 D4
 BE B5 C9 DB 45 80 11 B8 EF BC DD E7 DE 6A 13 A0
 39 92 36 AF 6B 71 80 80 8F 3C DB 07 EC 25 F2 F2
 A3 83 83 14 0A F4 73 0B F0 51 A3 2E 92 1F BC 0B
 EC 6E A3 4F 48 C7 81 F3 07 98 52 38 5C DA 61 80
 D2 0B C0 58 FC 54 4A 8C 17 DF 1A 05 75 19 0D 36
 2A A3 02 2E 32 51 B7 EF 1D 77 7A 66 8D 85 A8 39
 2A CC 8B A1 75 2E 4E 62 AC B6 2F CE 78 E2 67 B0
 E6 35 8E DB 6F 1E ED C9 26 56 0F 1D 83 2E 2D 31
 4C 5B EC 58 6C 35 26 93 2B EC 6D 89 AE 9D 1E B9
 E9 20 77 4B 5F 4C 76 24 97 F1 D1 A9 37 DE C9 4A
 3D 3D 59 AA 2A 1E 41 32 72 27 29 CE 49 33 C8 0F
 E2 53 5A FB 93 64 09 C5 04 92 9E 50 1D DE 67 8F
 2A EE 00 E3 9D C8 C4 BE C3 2D 1C A3 B7 20 B5 B4
 EC 0B 8B 6A A5 1A 26 1E 9A 6A D6 DA A6 AE 7A 5B
 EA 67 D6 E3 DE AF 71 25 39 96 23 DB 43 8A F3 88
 E8 73 B4 B1 FC C6 26 5A 8A CF 8E 99 25 DD 23 41
 0D 1D 6D 79 CD A0 DB E7 4B 73 F5 83 B3 2A DA 0B
 D0 78 87 25 92 FF D7 67 B0 47 36 EE FA 94 25 7F
 D9 39 63 9D 19 E4 3A BB BF 7F 7D 7A 1A 2F 10 44
 69 05 67 11 9A B5 AE 90 59 DA 74 B8 94 3B AE 8B
 CD 68 95 13 1B 7C F1 54 90 CB 18 6D 42 F3 FC 97
 6B 74 85 30 CB 2D 36 8E 0E C2 D5 9E F8 46 D6 22
 8A B3 76 79 C3 87 A7 66 12 6B 7C 4C 4E 1D D1 27
* End 1363435008 704827799