* LTspice Encrypted File
* 
* This encrypted file has been supplied by a 3rd
* party vendor that does not wish to publicize
* the technology used to implement this library.
* 
* Permission is granted to use this file for
* simulations but not to reverse engineer its
* contents.
* 
* Begin:
 31 B3 A6 00 50 14 25 14 DE 6B B7 50 8F B0 DE E7
 CC C3 C2 A3 CA BB 1B E6 ED A5 B0 C6 37 8E 76 09
 85 03 3C D8 FE E8 C8 FB D7 DE 3E 0B 05 E5 7A ED
 11 21 D2 59 D8 DD 21 34 80 45 F2 86 5E D0 5A 15
 9A FF 7D 0B 0C 6C 1E E5 5A 83 0E 6D F2 C1 82 BF
 2A 83 0F 25 4E 2B 30 B7 AF 18 B8 9B BC 6E D5 09
 99 E7 8E D4 51 A5 B4 3E 2C 79 DC C5 11 C7 93 37
 D3 13 FC 90 20 A2 C4 62 E7 E2 4F 12 0D 4B 00 81
 75 2D 96 18 6D 03 C7 A1 95 7D E6 87 47 CE 43 CD
 71 9B 4C 37 DB 44 D9 B2 CB 5F 5C 04 45 7A 58 54
 20 C5 4E 86 1F 5F A1 F2 E4 34 CF 13 D6 A6 F0 7D
 EB 78 82 4E 65 B1 D1 D9 3F CC B9 8A 4E 7F A9 33
 51 4D 1A F8 B9 C5 C9 BD 8E 33 29 3C 47 75 59 6F
 DE 87 6C E1 30 68 D2 8F DA 26 A1 3A 48 8E 1B 09
 8B 02 4D 42 A9 6F 03 B4 A8 77 2E 32 C1 56 7C 38
 8E 25 DB D1 1F F1 DB D3 E5 92 A8 29 B0 E9 63 3D
 9C 83 BE 79 AF F8 C3 CC 86 5D E3 6D E7 F4 0F 34
 1C BE D0 55 2D 14 8D 20 F4 F1 19 12 CB 75 A2 A9
 C3 47 8E 09 F4 98 B7 36 C2 F5 21 0B 27 51 E0 05
 99 B0 F0 0C F1 CB AE 23 4C 19 83 51 A1 1C E3 E7
 DD F8 7F 13 03 63 CF 9A B1 8A 51 3F B4 E3 79 74
 B6 44 E9 93 DA F4 4C 34 EA 89 7E A9 FC CF 0C 12
 52 9B 46 81 CC 37 90 4A 0A E5 C5 96 5C A1 C6 80
 4F A7 6D F6 8C 6D 24 CB C4 9F 84 A6 FC E9 25 5C
 DA EC 78 35 D7 93 57 71 71 94 38 B9 9C BA 47 0C
 6B BC 85 45 4B D0 F4 CD 25 CB CC F6 A5 AD 47 B2
 CD AA 3B 5D 1D 09 54 AC 41 13 15 6F 9E 20 DA 75
 15 D2 DE B1 E5 65 96 E3 C3 81 20 D3 AB C5 17 45
 ED E5 39 7B 71 6A A4 50 B1 A3 ED 89 D3 DE EE E8
 6D CD 2A DD EF 23 EC 8B E8 E8 7C 95 48 4B 2C 33
 B4 45 0A C9 F6 F2 A7 FD 88 D5 12 33 49 B8 C1 E4
 48 65 45 F3 89 81 9F 43 B0 DE AB 9B 09 78 D2 E7
 E6 90 B6 2B A5 C2 74 03 ED D8 58 97 8B 7E EA F1
 5A 30 D5 24 F2 FD D7 C2 72 6C D0 E6 82 63 34 F5
 E1 84 05 8A 92 EE 1A 2D 04 28 13 83 DD 79 0C 6D
 F9 E2 A8 47 FB 1E 52 3F 6D 1E 5E 96 D8 18 28 7E
 BB 7A 97 5A 1A C8 AB 2C C7 04 89 02 3C 7F E0 D4
 38 20 F5 FB 97 A6 E5 40 B2 0A 62 1E 65 B6 99 6A
 87 99 5D 80 44 80 E6 4B 8E 11 5F 71 DA E9 89 16
 3D A7 D2 0E 2A 56 59 6F F5 EB 81 B5 24 7B 51 BF
 C6 F7 8F E7 85 40 8F F8 19 BB AC 17 C4 80 7E 1B
 7F EB D4 47 FA 4F 8F 1E 61 36 16 4D B4 4F C3 EF
 31 0E 09 7C DA B2 56 4C 6D 1B 00 73 F1 C1 25 D0
 C9 D4 2C A7 9C AD 6C CE 4A 12 2B 57 AC F8 46 FF
 22 2B BC E7 96 41 A3 47 E8 A4 8E 4C C8 94 E8 54
 BA 46 41 9D 88 9D 15 83 23 33 21 D0 36 E4 B4 73
 62 44 AC A3 77 79 7D D0 93 AD 7E 3D C4 55 6F 81
 35 10 8C 03 ED FE E6 99 3A 03 00 54 25 67 65 47
 4D A6 07 E1 0F D0 A2 D1 2A 85 E8 8B FC 81 F7 80
 A5 D5 3E 20 4E 2F BA 9A 8B 78 48 AA 82 88 E2 D6
 E2 ED EF 5E 29 F7 42 89 B7 6A 07 15 CF 2B 54 6E
 5B 06 DF 80 E0 A4 A6 96 15 F1 AB DB 1B 79 B8 47
 AA DD F0 3E D7 F9 CC ED 2C 7A A3 B8 E2 42 83 4E
 6E 47 0E 75 47 01 96 34 7D 4C 34 DB 8B 43 9E 40
 0D E8 2F FF 96 E4 BF A0 E8 1E A2 93 92 83 67 D6
 CF 3F 31 AF 16 EA AD 3D 8F 14 C3 8B 5B A9 A4 EE
 45 D0 C5 9F EE D6 82 01 D0 81 4D D0 A3 C5 00 C3
 E2 55 27 D3 F3 20 81 F8 9D 1C 85 87 7F 3E B4 FC
 D1 D1 6F 16 7B DA 85 AA FD 58 D7 19 00 EC B8 71
 F2 67 F0 15 EA AD DE 32 20 C7 E0 7C BE 8F 27 23
 4D 16 58 93 02 EE C2 C1 F1 20 3E 6F FF 1B 45 A3
 C6 CA 7E CF 15 6C CB 3F 59 6B DE 9B 94 6F 3E F8
 29 9E C6 D4 A2 EB 3D A7 33 55 B7 AD 1A 8E 89 48
 5E C2 A7 47 45 89 39 CA EE E2 EA 24 AA C1 AF C8
 58 4A 6E 2B 2A 37 CA E9 9F 9C 30 5A 44 4A 51 D3
 2F C1 B1 04 DD 7E 51 FD 5F BC 3A F6 B8 A0 62 8F
 36 C4 80 90 6F B1 69 6F 9C 03 A4 42 80 55 85 AF
 3C E6 26 57 59 D4 00 22 2F 37 AE 40 E1 47 25 00
 3A 51 5C 82 F8 A2 78 F9 1C 1B 9E 5E D1 09 18 62
 11 FE 13 74 81 97 F5 AE 76 D6 E6 8D 6C D7 E9 85
 02 4F 77 C7 F4 1C FD B9 2F 0B 5D 2A 2E DB B3 BB
 94 22 99 71 42 7C AF 14 DC 5E C4 9B 43 A7 6E CC
 21 94 B1 51 6C 6B 9D 95 A9 63 D0 3C 02 26 8F D3
 43 FB 6D E5 C4 2F 1A 17 89 CF 44 CC 02 8B 77 94
 D8 8A 4F 2F C2 0E 7B A3 AA 40 2C 0D F3 FD 1E 3B
 BD 9C 39 11 1E 20 23 FF 2C AE 5F C7 ED 7E 78 3E
 2B CC 7E E5 4E 99 64 7D 94 91 9A 56 DB 8F 39 FB
 25 63 65 7B 13 79 65 D1 2C 60 BE 7C 47 78 B0 4A
 27 51 8A 9B E3 60 76 DF 32 45 4D E8 CF 75 31 66
 5D 4A 5E 21 89 0C 16 CE 95 AB 22 88 87 9F 70 01
 EF DF 21 E9 7C 45 76 27 4E FD 71 B6 1C 55 50 BF
 BB A8 19 62 B1 7F 52 75 87 84 F3 B5 39 D0 39 07
 6A 94 C5 A8 83 05 85 7B D1 75 A0 A7 B2 4F F9 66
 19 8E E3 92 34 70 6C 27 C5 0E 16 F7 95 69 1B A2
 03 A2 F3 E0 0A 6B 0C 4B 0F 72 C4 AB 12 48 89 98
 AF 0C 44 76 99 09 C6 39 0D 75 25 A8 51 01 A5 CC
 D0 AB DF 7E AE 54 74 57 6B CC A8 D9 21 5F CC A9
 8E 48 4E 15 D4 04 DC 9A 90 0B 60 D4 3E FF 0C BA
 8D F8 1A 94 37 6D CA B2 85 91 05 C5 A0 8F 70 D9
 74 62 55 DA 37 EB 1D 86 DF 6F 65 79 7D 70 83 EC
 C8 6B C9 3A 8E 64 CB 26 C5 08 53 CB 27 73 52 17
 D9 59 8B 76 D6 1C 6D F7 72 88 40 BC E9 D4 E3 7E
 D5 6A 1D 34 DE BE 47 0E 78 62 DF 7A A8 33 06 C0
 8C 35 27 22 E1 8B 7D A2 25 B7 28 59 5A D6 46 F5
 78 F9 DD 85 45 AF EF 6E 4D B9 C5 0F 94 7B FF 7C
 09 28 B7 8F 88 50 34 65 A0 70 96 7F A6 0F E5 5E
 EF 76 27 45 9B 01 F2 75 F0 80 7A 78 86 2F B1 DF
 F5 BC 61 01 F3 B6 57 2F 74 18 1E BD F4 70 C5 81
 0D 10 4E 3D AB F9 CE EB F1 7F 85 29 E9 1E 39 CB
 62 82 3E EA C3 91 C8 3D 90 28 A1 CA 67 D8 BC 97
 89 71 3A 14 ED 1B CC 61 EF C5 E3 BC 8F 33 3F B4
 60 5D A9 5A C0 70 F6 BB 69 35 CB D4 B5 72 AB FB
 6B F0 9D 75 9E 2D E8 DD D9 8E C2 E1 5B 64 4D 1F
 71 18 12 65 33 8C 0A E5 DC 7D 68 52 C7 29 E5 AF
 EA 42 64 27 45 81 C6 B3 6F C9 57 A6 C6 DB F2 F7
 7F 17 64 28 1E 34 2B 2C E1 37 DB C5 5C 87 A0 28
 07 C1 4A 99 D9 04 3E F3 5B 2A 94 D9 90 40 F9 45
 A4 BE 3F 16 94 32 DE A2 98 23 B3 1A 2F 8B D6 E2
 38 07 B6 A4 97 0D 7E 53 47 A2 61 01 C0 9B 03 C5
 8C 6B 4C 4B AF 6B B4 41 E0 1A 48 4A 22 98 3B F7
 DB 00 B0 3B C1 57 2D 6B 99 BC 02 E9 41 3D 38 28
 51 57 63 09 D9 36 96 E4 7B 82 EB 68 FC 01 7E EC
 5A 78 13 59 A3 51 82 15 97 3B 11 B0 56 B8 7D 4D
 A7 CC 32 B5 F2 78 BC 5B 5B B9 81 B8 12 63 66 86
 4F C6 5D AE 60 37 C3 0D 45 16 80 53 38 4E B8 49
 CA 94 F3 2E 91 BA E1 81 77 48 8B 64 12 7D 2E 30
 34 01 D2 B9 D8 8C 54 37 49 68 EB 85 88 C2 4B 38
 6C 78 23 70 8B 9E 42 24 4F 20 91 09 C0 22 77 04
 07 77 C3 A3 9B 63 B9 68 20 4F 93 D1 1F 48 3A 7F
 8F 32 94 26 B5 CB A1 97 CC 45 35 3F ED 64 0A 85
 81 1C 9A 0A A9 8E 41 D1 9C 04 F4 4A A6 DC DA 05
 EC 58 1D A0 0D 04 D0 25 6B 95 2F 09 22 1E 23 22
 A9 0F 23 6A E2 62 71 A7 3C F9 17 D0 4D 04 44 90
 1D A1 87 AF 21 9D 42 75 E9 F7 36 88 5B E6 C9 19
 56 27 D1 64 69 5A DB 19 92 0A 5F 0B 8B 21 00 2D
 4E 1A 56 24 9B 52 B9 F6 82 84 1A 55 84 DF 08 C8
 B0 AE 19 F8 ED F2 FF 4E 0C 28 9D 2C FD 6C FE C9
 E2 B7 97 B1 B7 10 1B EB 90 99 FF 4C BE 98 23 DE
 91 65 28 58 09 82 73 21 9C 2A AB 13 B6 63 C9 7D
 54 1B 90 2A 32 CF 4E 80 84 8D 6E B9 F2 82 C0 72
 E0 7E F5 81 98 5E A6 FB 70 1C B5 A5 BA EA 99 BE
 46 2C 20 E2 18 E8 D0 8E 30 51 CD 7A 7A 28 AD 44
 AC CD BE C1 C1 F2 B6 4B 36 48 43 17 FA 53 AE 6C
 17 A1 28 5D 24 F2 1E 2E C5 48 73 9C 6C 50 B0 48
 6B 50 F3 C6 2F 65 74 31 54 26 DC 5B 0C 44 A1 87
 4A 1C CE 49 BC 56 FA 12 8A 6F 6C D6 9C 94 13 5A
 95 B3 B2 9C A5 3E D7 20 6F A6 EE F4 15 A3 80 49
 26 A2 C2 73 5D BD 4C 20 E3 B8 E5 2D BE 99 68 59
 0C 25 E5 4A E4 92 6F 18 57 59 E4 31 6C 0D C8 71
 08 91 97 2C 8D AA F0 85 81 1B 8B E4 19 EF 8D C3
 65 11 C3 93 32 F9 AC 04 CF B2 95 B5 FA F6 AF 8D
 6D 59 65 22 50 B6 F7 63 83 40 88 17 A8 5D 3E 7B
 7C EF CD 1C D9 47 C5 85 9B 76 96 C2 DF C8 29 C6
 11 F0 9E 9D 77 1C 56 E3 47 51 76 69 C8 F7 20 A3
 54 0D A5 E7 2B D0 90 5E 1B 8C EB 83 48 8E C3 06
 76 40 8A A7 93 F9 14 D2 A0 36 60 DB 14 73 69 F7
 00 92 05 95 B7 A0 8E DD 91 06 4C B6 C3 94 47 78
 C0 23 C2 A3 DE EB 20 A3 A0 F1 40 66 78 29 33 F4
 44 29 4D CC 27 30 D4 0E AE 54 CD CA D2 76 1A 43
 B5 FE 61 BE 36 CC 24 96 DF 8C 43 F3 9E F6 A9 B2
 5E AC 55 99 BF 8C AF 31 D4 BB B0 14 44 46 73 3C
 D4 75 00 13 F2 CC 28 4B AC 10 5D 85 33 BA 52 70
 FA A6 55 3B 44 4A 7F 26 70 44 54 E1 16 0A 5B 2C
 52 19 D2 51 9A C6 B0 20 BF 90 E3 80 BE EC 0E A4
 5A 6F EE 3F D6 C1 4F 2E A2 E4 01 58 C4 EA A6 9B
 40 2C 92 23 46 4A CA AE FC 27 A8 DA 2C 1E FF 9A
 C3 BD CA 86 8C FB 87 01 53 87 24 2F 22 1D AD 2E
 7E C6 8D 33 BA 34 57 D6 0B 6B 82 B2 6C F9 6D DD
 86 5A 18 FF FE 78 9F 41 BD CC 8C F4 C3 A0 7D DB
 A2 D9 FB EA 6D 94 00 4C
* End 1111233695 2409823771