* LTspice Encrypted File
* 
* This encrypted file has been supplied by a 3rd
* party vendor that does not wish to publicize
* the technology used to implement this library.
* 
* Permission is granted to use this file for
* simulations but not to reverse engineer its
* contents.
* 
* Begin:
 C3 8F 45 BB E0 79 73 E6 30 2B 9A 25 99 B1 34 D1
 EE FA 6E EA B3 ED 69 33 6E FF E4 E5 C0 4D 7F 84
 9C 33 CD A9 34 39 83 9D 64 77 64 AD 6C 17 73 23
 75 58 81 85 39 5B 6F 72 2F F8 03 F3 88 AE D2 A1
 9A 8E 1D 6D E2 EA 66 7C AF 24 B4 3C 30 9C 3F 1C
 99 DB 26 C2 3C 80 2A 48 AD 45 A8 69 3A DC DB E8
 F6 67 09 52 FC E3 23 16 C7 A7 B3 0F 21 35 86 37
 0B E4 55 BC AD 94 C0 E1 6C FE 14 DC C5 FB 88 81
 14 6B B5 A5 02 61 69 6C 7F 2C 52 EB E7 9F 5C 43
 3C 2E 94 B6 B8 5C 38 59 A5 AD 7B 9C FD E7 0A 92
 8B 40 1E CA 38 24 CA 3D 0D 6A 1A F2 FC C7 EA 5E
 1B EA 24 2C 44 B8 00 B7 E2 AA 52 18 26 14 33 C8
 17 23 8D 4E 0C 38 1E BD C7 82 32 EF F5 30 D8 62
 28 6B E8 AB 1F 49 F0 CD B1 E3 57 09 0D 54 81 CE
 AF B6 B3 14 F6 2A 8F EA 31 29 2E AE 79 29 06 40
 1C 87 EC 81 D4 9B B6 1D D4 0B 27 EE C7 DF AC B3
 51 0D 76 A9 77 3C F7 05 E3 49 4D 7E D4 81 D3 1F
 67 07 D3 92 65 FE 96 22 0B 46 07 B0 20 7F 64 EA
 4B 03 AC B1 06 39 8F 6A BA 09 F9 18 D1 6F 61 46
 B7 22 70 F7 1C AC BC CE 37 E0 7E A0 30 58 EB E9
 E0 E0 2F ED 38 D3 4D 43 40 6B E9 A0 60 C8 F3 F6
 72 B6 0E 34 CC 42 14 B8 17 BE AD AC FA F1 F9 B4
 5D C7 19 6C A4 60 F2 6C 8F 23 AA 06 32 8C F3 E8
 B9 9E A9 0C F3 C0 56 FB 09 7A DD 06 3F 14 FD 55
 7B DC 08 68 C4 61 37 E5 CF 46 B2 F0 D8 E6 D6 E1
 C6 9B D9 52 46 31 D7 A9 70 7C 17 E6 C0 16 77 3C
 E9 B4 00 89 A0 3A F2 CB 76 F2 3C F4 56 76 AF 3E
 05 26 A7 C4 75 6A 05 A4 CA 64 BB 64 38 97 3B E3
 67 02 06 3E CF 5C C0 62 E8 0B DB CC 80 0C 4C 8F
 C2 D3 C1 4E 4C B9 93 12 46 20 86 E6 BD F0 75 A3
 A7 B7 6C BC 10 6A AD BD F9 89 2F 63 0E 66 18 64
 20 E9 8E 9B 4E 9D F1 39 63 0B 35 78 17 B7 37 AB
 FD 85 AF 3A 8F FB 59 C9 7A A1 4E 1F 68 78 87 DD
 00 E1 81 2B 09 84 92 BF 89 ED 3D 1E 27 F1 EC 08
 69 5F F9 4D E8 DA 20 14 92 3C 68 06 87 5D 3F 49
 98 F7 34 B9 4C C1 50 2C 2F 60 77 5B AC 52 50 89
 C4 B0 74 6B 53 21 71 BD 74 32 1D DA 2C 9B BA A3
 8D B6 57 FD A3 5C 27 75 93 62 4D E7 AA 87 16 48
 AF 43 01 C1 D0 26 89 78 18 CC CC 7B C0 D0 DC 8B
 89 CF CD 26 89 06 6F 56 7B 90 31 ED 15 3B 27 3F
 73 ED 74 ED FF 1F 3D 71 08 39 E4 B7 5B 54 80 8B
 51 06 38 2B A7 EB E5 E7 BC FD 37 9A DF A5 2B BA
 A2 B3 D5 A0 A8 D8 45 C3 E6 79 21 E9 8D D0 11 BE
 0E EF E8 19 E2 9D A6 41 0E C1 DF 35 12 61 C5 5B
 18 AE 05 2F 72 E1 BF 36 A1 97 AD 89 22 D5 97 95
 76 7F C0 48 31 D6 3E 11 42 73 E6 2D 67 FD D3 80
 B0 E9 4C 00 DF D0 2B 6E 65 90 4F 32 9D A8 A7 CE
 27 25 12 0D 7B C5 44 6D 79 F5 72 B3 C4 8F A8 33
 DC 29 B7 D0 28 34 75 5F 33 14 3A 4C 97 07 03 D8
 AC A0 77 8B 8E 9D 11 5C F7 CF E7 B1 20 BC D6 E6
 A4 5A DF 43 36 48 C7 ED 07 42 C5 4A E4 0C 3D 02
 41 E6 D6 8B F2 FF 2E 15 EE 60 F5 68 24 27 6F 8F
 10 4E 1A A1 18 73 15 3C 8E 07 18 E0 AB 78 61 07
 D9 B0 07 74 9E 31 8B 1C C4 02 0D 36 77 74 C1 FA
 D5 4F FE A4 E0 9C FE 39 C1 A6 0F 63 F1 FA 94 43
 42 E6 09 3C 91 16 F8 E7 8A 79 16 45 34 AC F5 FA
 9A 4A 43 70 04 1C 2F 30 F1 CF 36 43 8A E5 86 9A
 CD B5 BA A1 A5 60 C0 12 46 8E 69 9E E7 28 E9 3E
 AB A9 71 41 15 81 39 00 71 38 7D 18 0A E7 95 57
 F6 9F 51 CD 59 F8 8A D7 B4 1D 09 BA 02 DF 92 F8
 5F 61 C5 0C E0 B4 C0 59 48 0D BE 81 A7 30 A6 25
 E8 6F CE 1F C4 E0 79 D8 C4 C2 CB C2 B2 03 95 7C
 C0 E0 4C BD FF 56 A6 95 02 F4 C0 69 FC ED A2 D9
 59 4C 5C BA F4 1D 3B 14 BF 18 0F 55 B7 E6 53 A9
 9E B8 14 AB 91 9C EB EA 66 C1 3D 21 B3 86 30 9C
 BC 6D B6 87 D8 46 DB DC 80 D3 C5 80 C2 AA EF 7E
 01 F5 0C 38 39 B7 A7 42 91 D2 A4 FE 61 BA E1 09
 FE 6F 51 BB DB F8 D3 81 08 01 7A C9 F0 79 93 C7
 F4 17 7F 17 15 2C F6 2E E4 15 86 CA A0 C4 D5 DA
 37 2F 9A 90 4F E9 5F DF CF A5 B9 C6 F9 DE 83 8F
 C9 D9 7C 2D EB B3 A1 7B BB 4E 32 4C 24 A8 B8 0A
 02 97 AD B1 55 58 02 7A 55 9D 96 51 7E 70 25 95
 45 BB 75 93 AD FD 82 FA 48 90 B9 49 D1 C6 60 C5
 A5 21 64 20 D1 FB 20 A8 13 61 B0 44 04 25 04 D6
 F4 5C 65 CA 3D FA 00 C3 5D B9 F7 F5 3C B1 D0 7A
 D5 92 32 90 66 28 E3 75 22 FE DF 96 35 E0 AE 84
 D2 7C 6C C7 92 96 BD F1 0D CB ED 9A AC 75 40 94
 2D D8 BC 52 F0 AF E8 60 AB E8 E1 85 41 38 5C 41
 60 36 A3 77 3D AE CD 0A D2 35 85 BD 56 B6 1E 38
 B3 4B 14 47 7F D1 5B 4A F8 FA D9 18 AC 8E 9F 18
 2C 2B 7D C7 0C 00 44 6D 32 B8 9E FB 63 74 6C 97
 CC A1 62 88 BA AD 57 6D C0 BB D3 4D 9F F0 22 A4
 49 13 E6 73 A7 41 EF 73 A5 35 23 8B DF 1F EC 51
 5D 4C B6 9E 9A CC 85 8D 21 DD 9F 71 AC 31 A1 E7
 AA 44 86 1C B0 A2 BA A7 46 46 26 30 33 08 41 36
 52 83 F1 99 25 2E A7 F9 22 96 DE 86 C9 0A 89 F1
 7F 34 1C 3A B9 23 D7 D5 8C 1C 82 FD CD 21 AF 88
 43 A7 40 6A 5E 09 1D FB C1 09 1C 85 83 C5 AE B6
 5F 51 A5 24 66 F1 1A CE F9 B5 C5 E3 71 10 32 0C
 EA 7A 58 17 F4 53 79 6B 43 0B 8B BC 72 99 9E 32
 AF DC 95 0D 94 A7 17 09 A6 4A 57 C3 1A 6D A8 5C
 39 E2 A0 2C 60 B3 0A A7 17 C0 E2 A7 3A D2 16 CB
 19 01 F8 F5 4B 86 33 31 49 90 B9 6C A9 E8 5D 5F
 B0 28 B6 FA 2F D5 0D DF FB CA 8B 82 07 DC FE 66
 1E 08 13 A9 6F 0F E7 3B 56 0B BC FF 70 8E 70 23
 95 C3 EC 4F 4F 7D 28 8D 8C 7E B3 49 56 19 80 F7
 E6 E8 C2 12 44 6A 36 A2 34 62 C5 00 6F E6 D3 9B
 EC D0 08 32 61 B6 05 30 53 D1 04 58 AF 53 E1 12
 0B 3A 66 19 E2 AA BD EF 5D 5A 07 D1 53 4C DB 38
 AA A0 1E 4C FB 08 F1 91 CA 6F 5A 4D 61 23 97 6F
 E6 DF AE 1F 5E D1 48 8C 90 82 3B 00 54 7B E4 2B
 B4 A3 3B AC 0A 7C 61 31 C8 4F 40 6A 31 F8 04 B1
 47 62 F5 BA EA 29 58 AC 55 CE 3F 56 70 EB 73 C0
 66 36 2E A7 77 AD D2 A9 F7 D8 9A 43 FB 79 FD 2D
 3F B7 13 05 6A A0 25 76 BF AC 92 BF 0B 81 A4 83
 14 49 53 CB 06 48 03 85 74 5A 56 10 85 CA 0B D4
 2D 67 61 D9 7A 80 F6 9A D1 30 2B 56 38 7D F2 E6
 E4 AF C6 1F 0D 04 3A 99 3E 5F BA 25 BD BC 6A C9
 8C 63 77 79 57 F7 39 B2 7B 9D 3A A8 86 63 55 D5
 FC B2 D8 A0 BA 30 9A BD E3 35 B3 D9 FB 81 6B 3A
 69 08 BB E7 25 73 9E 2F 0B 1F 8A DC 5B 26 73 C9
 D3 88 1E 80 0F 5E B4 BD 2F CA 7D B3 59 DD 00 5F
 69 1B 3C 6C B0 B2 61 26 BD 00 25 09 3B D9 4C 05
 DC B9 49 E9 DE D1 84 A3 49 1C F4 4A 92 9E 3A 7C
 83 F3 3F 3E 87 59 9C 6A 7B 30 9A 9B F4 08 93 BA
 2C 3B D5 66 AF C4 6F 3C 8E 71 5F 00 45 3A DF E5
 A5 AA 31 22 D6 59 A6 5B 25 C9 06 BF 85 A5 2B 2E
 94 44 3A 9F 79 5B 1F E2 0C 2E 20 6D A9 BB 62 24
 CC CF CF 66 43 0B 6C A5 92 F1 79 6F 7F 69 D6 AC
 3A 57 F8 F6 EB 0B 4A 91 0F 71 2C DA A2 AB 38 B1
 79 1C A1 A1 DD 76 73 32 D3 D4 93 74 92 BC B3 40
 EA FE 20 6F D1 E5 D7 8D 4C 34 4F 9E 4E 1D 43 EE
 5F 53 B6 D4 D2 71 33 3B 26 97 4C 23 9A 83 24 C5
 EA 46 AF 92 ED EE FC 28 DD 2D 39 B1 04 90 21 55
 05 5F 16 BB CD 2C 39 9F B8 39 81 72 F9 A2 48 32
 04 55 99 A7 4F 19 0E 18 28 99 71 84 E4 E9 0A 4E
 7E 04 E5 1B 7F 29 83 B9 6F 3F B5 0D C4 50 89 10
 CB A8 D3 1A 17 3A E6 6C 7F CD 45 4F 5D 26 42 8C
 41 3D 30 65 26 9C FC BF 50 D9 B5 A7 C0 AA 34 FC
 F8 0F D9 FF D3 86 E8 D5 2F 98 6C BD C0 AE 6E 21
 EF AF 18 69 7C 32 F4 1F 9B 2B 91 94 56 86 5D 9A
 DE 42 20 69 05 38 E5 EE AC CA C8 B9 04 A5 E8 9F
 A5 C3 63 45 BE F0 16 CA A7 41 6C 72 58 B1 19 F4
 A7 4A 9F 4E C0 29 6C DD DA C6 4D 7E 65 78 21 8A
 24 45 47 C7 24 74 F7 71 EA 6E 2F 46 A6 5E 30 2E
 BE 67 25 36 B8 22 B0 A4 DA 89 43 92 96 5B EE 01
 92 10 B7 28 84 28 BB 27 55 58 E1 9D AE 54 7D CB
 C2 F8 A0 3C A8 AA D0 CC 31 BA 98 19 B9 AD C0 62
 35 D1 01 25 CB 37 B8 DD 35 7F C5 8C A0 70 1B 18
 99 79 33 95 DA 65 C9 D0 5B 71 E6 A3 93 26 D5 1A
 E2 B7 A8 F0 40 00 03 3D 43 96 BD 16 8E 4A A7 08
 E5 1E B8 32 C1 18 4D 2F 5B B0 7D 22 84 DE F2 39
 6A 91 05 D5 BE 1C 34 46 8E 6B 62 B2 2F 08 82 C5
 36 70 0A 6A 01 5E 2B 22 C2 B0 F1 F6 F1 92 96 22
 21 C9 BF 24 94 5A BC 78 F7 EC AF 3D F3 D5 05 2F
 88 3A 95 B2 07 B4 87 0B A5 D6 C5 0B A9 DE E3 D9
 4E C9 5D A3 44 FD AD 7E 96 28 44 8E 4C 2B 77 11
 CC 1B 96 43 11 00 F8 1A F2 F4 E1 67 E5 08 80 42
 AE 8B D5 CE AD A4 E4 16 B3 69 DB 39 BC DB 3B 5F
 5C 40 6D 79 4B 3C 50 45 2D 49 2D 7B 3B C1 3E 0B
 58 45 F3 D2 D9 9E B4 30 34 45 A0 62 D5 24 09 0C
 7F 7D C3 40 4A 84 CE 13 1A 73 22 CB 09 C7 17 49
 A7 8A 0A E6 EB 18 91 E3 E7 71 92 9B 26 9C 40 4F
 87 EE F1 80 D4 51 54 5C 8A 59 30 A4 03 54 6B E1
 DA 6F EF A7 C9 73 EC FB F6 40 DD CF 57 1A 03 6A
 D3 68 17 16 19 F9 6C 2C 3D 06 A6 B0 48 76 48 9C
 49 09 40 A2 9A 05 B8 AA 2E 4E 86 C7 A6 26 4C D0
 1E FB 6A 7A 5E 2A 0A 24 B9 06 76 BB 18 DE 94 EB
* End 1240167491 2105050160