* LTspice Encrypted File
* 
* This encrypted file has been supplied by a 3rd
* party vendor that does not wish to publicize
* the technology used to implement this library.
* 
* Permission is granted to use this file for
* simulations but not to reverse engineer its
* contents.
* 
* Begin:
 CF DF C3 70 2C BC 33 EB 29 D6 8D A4 C7 D7 3F 97
 95 31 B1 4F FF BC 1D 1E 24 77 3E 63 F8 CD 3D 4D
 90 22 55 5F 0C 06 04 9F CC A7 D5 D4 13 85 87 25
 3C 5B A1 47 D7 8D 72 1E 63 9A C8 4A E1 02 1A 85
 D4 93 0A 4C 23 7F 43 97 F3 CC 7C 54 18 AF D6 BC
 EB C5 84 9F 7C B3 71 37 8E 98 F7 1C 86 94 F5 06
 EB F5 D1 FB EA 8B DA 31 80 9A F8 25 15 2C FA BD
 35 B6 89 DD 22 C0 EF 22 91 4D D9 81 FA 1C A9 C6
 AC 0C F9 81 CA D2 CC 05 71 E3 29 85 BA 97 54 2B
 53 04 51 3B B0 54 F2 F8 F4 1C 46 D8 13 1C 0D DC
 FF 5F 6B 71 DE 8B FC E9 0E 85 BB 84 BB 97 A7 16
 1C FE AB 6C 9B A9 BF BB 7D 3C 42 12 2C 56 2C 51
 64 A8 04 A5 5C F9 E4 EE 63 FD 20 69 4C A0 D4 A6
 A9 08 64 3C 2F 45 13 DE 77 B5 83 92 07 70 74 10
 90 A3 89 4A 54 E7 C8 21 8B D8 15 4D 6B 78 60 2A
 B3 AB E8 65 53 E9 00 3E 24 08 78 F3 6A 4F 72 E2
 20 BE 52 C6 B5 F9 A9 72 2A 10 65 22 CB 1C 7C 11
 89 95 07 D4 61 9F 3D D3 DE D8 74 D5 A5 09 39 0A
 47 AF B4 49 A6 3A E3 B0 93 EA 3C 8E FA 6E D2 9E
 B3 85 20 0B 2E AA DF 57 E5 94 3F C9 EB 6C 3E FD
 BE 7C DF C6 91 66 59 D8 88 DA D2 4E 42 B6 47 0C
 9A 09 E4 5B 39 74 D6 AB EA AC D9 D0 B2 29 12 66
 0D 5F C5 A2 4C 52 6F A7 1C 22 E8 E6 99 83 16 61
 4D A1 A5 86 B5 BA 06 B1 16 72 19 05 A8 D8 DC DD
 16 53 CB EF 28 CB C3 0F 12 78 A8 AE 93 AE BC 82
 D6 33 7F B1 04 78 0C B8 BA 56 E9 0B 5E 2E 4E 4B
 EC BE 0D 52 3B 9F 55 56 D3 21 B6 53 63 77 D6 0A
 C4 AE FC E3 BC B4 BE 84 1D 61 A7 33 59 F9 10 57
 33 AB 1E 49 62 F4 88 D9 8F 10 7B 80 AA FF CB 7D
 AE 1D 5E E1 6A 1E 6F C2 77 43 2A 27 3B 6F D8 9A
 CE 12 86 6B 93 1B 48 01 35 51 A2 7C C5 28 F6 BB
 FF DC 1C 32 3E 3D 1D FC D3 8A CC CC 72 31 AE B2
 3D 2E 8A 84 8B 92 45 1D 37 68 3B 25 29 A2 47 50
 7E 93 D7 B6 75 6B BC B5 89 75 2C 3E 7F 23 6A D4
 11 AE FD 15 66 C0 2B 0D 40 F6 19 A0 72 4B CC D0
 23 AE 56 B6 A6 FA 8C C3 69 11 2F AB CF EE 03 18
 1C 99 4A CD 04 E8 63 57 5C 0B E6 1F A3 C6 63 89
 E4 7F 6B B4 5A EC 8A 68 43 6A FC 32 9E 28 A0 96
 BA 76 9B C8 10 D5 53 7F C5 62 00 52 E5 95 81 33
 15 27 B9 2A 1B 9D 07 DA 48 D2 D5 8A 94 DA 1D 89
 58 E9 35 4E F9 A1 C4 75 A2 D9 73 C6 A6 C5 79 CF
 C1 49 7E 5A FB E2 2E BA 8D 0C 51 61 27 5E 43 A0
 CA B6 BB 7B 7C 8E 9E A4 EF C1 4F DE 98 14 0B 8D
 FC B9 22 6F 81 27 67 63 84 3A 43 8E 58 B1 75 68
 D0 11 3A 80 27 9D 15 E0 24 E7 63 25 33 0D 6A 53
 15 27 15 62 C3 E6 AD C4 14 95 AD BF E1 0E 90 61
 5F 40 C4 81 3E 5C D3 5D 62 CF FA 4A 72 93 2D 7D
 3F 25 F1 31 8E 56 59 B7 42 6E 29 6C 1A 28 50 FE
 8A 3D 57 00 30 88 33 92 8F 5F 21 52 91 31 21 9C
 2A D4 B1 41 E0 DD 62 79 C0 1C C1 DD 07 D7 A9 B8
 40 BE EF 09 F7 F6 4B 88 13 55 31 D3 86 7E 40 76
 39 F9 6A 17 63 73 D0 FB D1 40 CB B7 02 74 C6 29
 66 ED 9B AA E5 9C E8 C2 DD F1 F4 16 D5 83 36 71
 B1 44 BF 46 FB 54 1F CB 65 DA 65 BE 22 26 21 4A
 C0 7D 5B ED A4 2C 56 97 11 02 84 E4 1A 31 07 AF
 3D 3F FB 73 DA BC 14 76 96 EB 75 84 D0 80 76 28
 03 C7 F4 53 C1 16 3A E7 12 C7 17 5D EB 1B 70 B0
 61 A1 DA 23 38 20 9D 1C 54 EB 7C B0 13 6C FE 57
 20 40 A9 6C 62 A9 76 93 FA F1 D4 04 12 02 AD D0
 AD 74 CE E7 59 DF B7 4E 11 22 0D F1 81 25 A9 32
 52 33 F3 51 0E 58 3A 3E 98 BD F4 AA C3 8E CF C5
 3B 19 66 E6 82 75 79 C5 12 3C 8F 48 2C 41 16 F6
 D1 D7 67 C5 56 01 17 1D 5F 0E 4F E9 FF 68 7E 3F
 4A DF 3F 73 E3 E0 F8 1A A9 0D B8 B1 7D 4D F2 82
 6C B1 05 66 44 09 C5 E0 46 F8 97 F5 9C BC 00 08
 54 3F AD 1E 41 94 CB B2 BF 25 63 0F AC 92 71 4A
 0B B0 D4 02 9F E3 64 41 44 EF 2D 10 77 22 B7 39
 89 A8 A7 9E B9 9F 80 1C FA 4B 1D 65 11 4E CA A4
 69 97 A0 D3 C4 F9 F9 48 2F F8 D0 02 D1 E5 98 EF
 39 04 0F 7C 36 4E C6 65 28 5B DD 49 6D 07 7E BA
 E2 10 A3 38 4F 4C B5 CA 37 ED 9F 79 E4 BE DE 0F
 DC 35 67 AA A8 F0 B0 A3 91 5C EE 31 0C D9 BB 2B
 62 3E F1 6E 0F 37 42 1B 28 75 10 9E 7C 30 E9 32
 E6 66 01 2A 2B CF 10 AB 1C 87 39 4C 11 BB 97 39
 12 B6 F1 B3 CC 68 FF 41 8B AD A8 48 9B B6 7A 2B
 2D 7C 0E 4D 4E 44 07 CE 9B 29 6B CF 47 EB 50 2C
 3B B1 0B 17 4B 73 1F 39 12 E7 1C 39 2E B4 05 B7
 C3 94 1B 15 73 A4 7D 9B 09 8C 6B 03 14 5D 26 61
 E2 E3 0D F9 B4 8B DA 74 94 4A 1F 2E 72 0E 77 EF
 DD BB FF 9E 59 FC 6F F4 06 10 23 76 43 0D 78 4A
 97 EE 9F AD 1B E9 ED FD 83 8D D7 DE E0 0C 92 5A
 CC 69 BC 80 19 4A 4E B1 82 17 AB 9D FA C0 25 56
 71 B1 36 F7 B1 39 28 C2 15 5A 64 7E 20 68 89 1B
 AE CB 14 0B 70 1C 9A A9 DC 14 F1 17 1C 0E EF 8E
 2E 07 05 17 B8 81 9F 88 16 CE F3 34 73 22 39 F8
 E0 25 E0 21 96 99 E1 E4 6A 7F 9F 90 D7 DA C4 50
 EC 24 16 70 A9 4D 07 05 1B 00 41 97 A8 FB 1A D2
 4D 9C CB 10 0A DC 77 E1 00 29 27 4F 52 D5 3F 93
 C9 89 74 9B 47 7D 59 C1 75 F1 BF B0 27 F1 54 1F
 E6 F2 52 CB 2F 18 D1 2C 12 62 25 06 45 01 AE 51
 7B 4B 41 A9 E9 45 C9 D7 97 EA B5 D0 19 26 4F C7
 77 31 14 23 AD 8B 7F FD F7 2F 3A 79 56 FE 80 17
 A8 8C DF 33 3F 10 94 F7 4F F9 E7 30 4A 65 8F 88
 6C B8 8C C9 9D 45 D2 6B 50 1B 38 62 0C 73 30 92
 82 A0 B3 05 76 7B C6 2F F4 C7 D2 17 0F 37 85 23
 B1 D1 FF E1 26 5E 75 94 D4 64 74 70 2D 1A 18 08
 BE 89 D4 5B A8 60 47 6C 5A A9 58 10 FE F9 A9 4B
 14 1F 4C 3B 22 D3 A2 4C 43 A4 AD 65 BC 89 2E B7
 F9 0B 34 DE B2 DF 66 23 BA 13 15 7D BB AB 11 EB
 6E 5E F6 39 B4 47 7B 9C 19 9E 8D 83 3F 25 02 E4
 78 5B BC 7F 57 C9 E5 36 BC 55 C1 9F B8 5D 51 A4
 C4 15 78 49 A8 71 59 1B A3 D4 CC 95 49 2A FB 2E
 DA C6 D2 8D 96 0E C6 89 12 4F E0 83 36 28 E5 6C
 64 E0 03 36 AB E4 31 E8 7B 67 C0 7E 1B 41 EE 56
 ED 9D BA 66 82 AB F6 BB B6 79 64 D5 5F EF 90 54
 C6 97 B0 EC 33 59 4E FF EF A1 BC A6 AE 43 D0 F5
 EA FF EF 40 CA BA 8E E1 C8 FF 4F F6 F8 09 D8 9E
 71 77 8C 8C E4 34 18 12 6C 9B 27 40 18 50 A5 68
 C0 7F 39 27 6F CD 63 F1 26 1B B1 73 6A EB 5E 3A
 D3 2D 61 60 DD 13 5D 99 E3 31 55 94 57 08 BC 6A
 94 67 9F 8A 0C C7 AE 75 F6 12 27 C9 C3 E1 1F 00
 27 79 E2 0B 67 B2 91 D4 42 58 83 D8 83 4E EC FA
 D2 61 7C 1F 32 3C E2 13 3D 03 52 52 DB 58 2A 52
 BB E3 00 B4 7E A6 37 A2 E6 74 BC 09 DE FF 91 7C
 BE 89 97 EC 6E 43 CC 6B CE B0 9A 5A DC 9F 93 E4
 35 49 F7 59 BC 5B 75 54 F4 A4 33 CE BD EA 71 30
 B3 DC 0E C8 F9 A0 B9 7F 55 82 28 42 40 2F 76 0F
 11 2E DE 42 7C 66 90 65 06 D5 97 97 18 D6 E2 A9
 BB FD DB AD 79 64 EA 64 96 CA 42 BC A7 2F AF F8
 29 ED 2D 3E D2 CE AF 9E 73 92 49 57 6D 19 0F 64
 1C D5 3E D8 8B 87 69 2B EB BF 3E 68 32 F5 02 DB
 1C E9 79 AB 10 01 BA 59 C8 5E EB 95 E4 71 32 A1
 92 74 47 B1 D3 40 E1 51 ED D3 5E 0E 31 72 54 17
 43 0C 77 86 4E 7A 3D 81 49 B0 97 B2 43 8E B5 E1
 D3 EC 4F CC 09 C3 44 07 17 2D AC 2A D3 83 57 49
 09 C6 F7 F6 E5 50 A5 C5 A9 5A 0F 48 1F 50 6A CF
 BF 21 DE C3 50 5E 3C FF CE 3A 42 10 DB 6F 82 DE
 C2 9C C8 71 5F 14 A9 FD 58 D1 8B A5 26 67 3B 82
 ED 9D F5 9E E5 BC 28 71 0F 59 09 80 6D 40 A7 8C
 D8 59 5C 7B DC 40 0C 34 1E D5 36 80 19 5D DB 6C
 E3 93 AB D0 01 6F 22 6C A9 0C 92 9D 1B 96 A7 01
 63 AA 05 42 05 D5 A2 C8 FC 33 BA 92 93 80 A6 16
 4C F5 22 A8 5B 62 48 72 B2 13 9B 81 21 C0 50 6A
 0D 7D F3 E8 F7 28 B2 E1 D7 24 E6 48 EF EF 16 BC
 8A DA CA C1 35 29 5F 81 D0 6C D8 B8 CB 0C D9 22
 8C 7C 8D ED 0F 7C 70 71 4E 75 D9 B1 A0 D2 BB 4F
 93 EF 3E 57 3A ED 74 B8 F2 87 44 B4 A3 D8 16 81
 63 41 41 5F 9B 08 0D 22 D0 45 3F 0C 20 95 61 19
 C3 64 F6 D5 5F 48 7F CE 7B 3E 35 68 1B A7 D4 18
 84 98 2D 4F 92 6A 08 8A DC E6 6D 15 44 19 DA 47
 E3 F3 B7 8C 57 75 5B 13 48 67 99 B2 15 84 59 51
 12 47 52 88 00 2F C3 D0 49 4C 58 09 4C EF 6E 96
 3A 4B 07 EB 34 9C A3 75 F4 EE 5B 0F 61 DE 70 08
 34 C8 29 95 DC F4 34 2B E1 E2 F6 25 9E 08 C0 B2
 A4 B7 54 58 7B 09 3F E7 DD 51 22 2F FD 18 FA 4A
 14 3B FC 4B 45 B0 C2 3E 3D 00 83 1C D5 63 E6 AF
 75 D4 C5 79 1E 58 C4 A2 26 B7 E0 0D 1F 49 85 08
 CA ED 6C 7C 9A 67 78 A3 65 DF 4F 2B E5 84 9A A4
 67 EF 6C 5C A3 43 DF 04 93 8B D5 70 A1 60 8A D1
 8C 6D 1C A2 2E 35 1C B4 DD 8B BA D6 ED 7A 4C A0
 AC A0 1C 77 0B 7E D8 46 DD BE 4B D6 A5 65 B0 82
 CD 1F B4 CA 7A 6B 6A D1 75 8A B0 F6 94 B5 55 D4
 C6 FD F1 11 83 2D 91 D4 17 2F F8 4D 64 C2 A3 31
 6A DA B1 00 0C FD 0A 80 70 EC E2 9D 0A 33 20 69
 FF E3 51 EA 1F 58 35 3F DF 89 B0 0E D7 27 E9 87
 95 B7 CD 68 7A 5C 27 AB 85 2A C8 82 48 BA FE 3A
 0C 63 A9 64 52 B9 A4 DB B4 F1 37 5E F1 2C D1 EA
 27 15 DE E5 0D BD 46 93 81 89 C6 C7 BB BB D0 62
 8A 02 0A 8C 32 47 6D 69 AA 43 97 1D 14 D3 E2 DB
 F5 BE 10 51 3F 4B 6D 07 52 AD BD 97 26 4A 9C C9
 A8 33 95 D7 2D 32 81 5B 0B 36 11 CF 87 7F 52 E3
 B8 92 75 0F 82 6F A4 AF 3F C4 68 F5 90 16 D4 B4
 D7 FB B8 68 56 B5 FA C9 99 10 EE 99 85 54 C9 D4
 D2 1D 21 61 25 CE 27 05 FD 8E F6 D5 6C 6D 34 87
 C1 EA 79 3E D3 78 70 0B 42 93 22 B6 A7 02 88 B3
 41 6B AC AF C8 CC 92 25 C9 C7 BE B2 4D CD 99 40
 4D 5B EA 71 A8 11 34 82 B1 FB 71 DF 5B 1D 4F 1B
 27 3D E1 4B BB F9 18 37 A9 0A 50 A2 16 A5 AA 9E
 C5 74 FE 84 32 C5 51 AD A5 0D 72 3D 24 17 E0 D2
 2F DA C6 05 24 41 03 70 92 17 7A 01 F9 FF D6 C6
 DF 75 17 EF E9 3F B7 B6 86 8C EB 02 EA 9D 41 21
 BC DC 3A 1B 80 70 20 45 6C 81 FA 44 8A 34 87 B9
 34 5E AB 5B D0 AF CA 56 1C 8F F6 48 76 B0 70 23
 8D 87 8B 2E 55 DA 0A BB 9F FD 67 A3 F4 21 51 29
 8E DD 08 23 53 D1 43 9C 7A FE CF 68 7E D7 55 F0
 3E 93 E2 C0 10 38 2E 78 75 64 3D E7 61 67 31 D0
 1C 5E 7E 2C 52 36 78 B0 80 A1 A1 1D 7D 12 E8 0A
 89 BB 4D 52 E1 F0 F4 EB 62 12 83 30 4E 3B 4A BB
 7C B2 30 51 52 B3 D4 5A 0B BE 6F FE 72 9D 69 5B
 1F 26 85 1A F2 03 32 9E 99 0D 3B AA 00 C7 8A 4A
 92 ED CB 91 4C 87 B1 FF 40 A2 67 D2 30 18 08 72
 03 65 B5 29 5E E3 43 6B 2D 39 D1 75 BA 1B F8 20
 10 36 8A 8E C1 25 06 AB CC 83 34 64 FB 6C 75 17
 5C 65 1B FE 8E 1B D8 8A 2C D9 C9 00 C5 77 EE 49
 80 BD 89 FC B4 8C AC 7B 34 B4 CF AD 44 33 39 4A
 79 DE 3E 20 9F 9B 3C 5B BB E1 83 3F AE 45 85 18
 6F 3B 7A 22 C6 9A C2 85 F0 2C 06 DE 69 8C 67 2C
 5C 04 5B CD E9 90 43 C6 C1 85 70 5B A8 8D 82 DF
 BD 96 78 6B C2 01 BC 00 0F 04 76 AF 36 14 D0 38
 6B 86 95 53 95 07 A0 C9 7C D6 13 1C 8C BA 7C 8B
 C3 02 67 35 70 EE 0C 6C 84 88 F7 8D A8 99 8B 97
 F2 B5 43 77 46 80 3D 03 50 4A 71 CA E5 7F 8D 47
 31 64 4B 10 EE EC 37 99 30 4F 64 D2 F5 AE 5F 10
 B4 C4 4E 5C 5F 22 B6 6E CC DC 0E 6A B7 0E C8 EC
 BB C8 33 92 12 31 B4 D4 64 9E 55 01 B1 1D B5 43
 3C 2C E9 8E 7F 2E FA F1 99 C8 C9 11 78 FB 0B AD
 B4 48 D9 97 4E 79 69 17 AF C8 49 C0 CB 67 E6 B8
 A6 5F 65 91 9F 3D 8B B4 31 73 D9 6C B3 AA A6 D2
 93 97 C3 64 49 C2 92 CE B4 23 88 C8 EE D3 20 74
 88 7D 94 F7 F1 07 D3 00 EA E2 21 86 FC FD B4 6F
 23 47 B0 44 C7 9F 6B A1 09 B1 1D 85 BD AD 4A 9B
 E1 02 8B 40 85 9A BA F2 47 0E 71 10 E6 09 AF 2A
 8E 1D 34 EE B4 C5 FF A3 D4 A9 89 7B 30 22 4B DC
 EA D8 A6 8A 56 80 44 99 1D 28 8D 46 7F 50 B2 BA
 B9 41 02 3D 51 03 49 8A BF 42 7B 32 61 0B BB 65
 17 94 37 DF 5C 96 22 00 53 6A FE 62 2F DA DF BB
 18 71 84 0E EF 08 9C 2C CF 4F B8 6F 7F 0A 2F 7F
 39 3E 21 C9 A8 DF 41 74 DC D1 48 58 0B 0D 19 34
 E7 B1 68 F6 3A F3 29 7C 41 DB 0C DA AD B0 00 6A
 95 90 C2 65 79 10 12 9A 4C 14 56 9E 27 44 85 3A
 D1 BE 8C A9 8F 9E E4 4E 47 41 74 92 F7 25 A9 30
 70 29 AE B8 59 E9 B5 C6 3B 9C 51 0C 71 63 28 22
 61 DC FE 9A 28 9B 35 9F 46 45 5F 29 75 4B F3 70
 84 0B A9 C8 AB 25 77 90 50 AC A6 A1 D3 50 07 64
 E5 E4 A6 F4 B9 7F B4 B4 CA CE 99 32 6D E3 55 91
 4F 3E 5E 27 2A A2 40 70 3B 31 E6 34 60 D6 FC 42
 7F 1F B8 D2 1A 76 64 A8 43 A0 A5 98 2E 1B AC A5
 91 1D 05 3B F0 05 D5 16 95 7A 2A 86 AD 5C 79 D7
 A0 55 DB 00 91 E8 64 9E CD F6 89 D7 08 04 B4 69
 9B 4C AA 93 3C D8 B3 05 44 37 DA 44 80 F1 C3 B4
 DF 3D BB 6B 0C C1 76 B7 41 E9 48 D7 58 07 1D A2
 4C 37 EF A0 9D 0D 06 31 30 61 B6 5B 92 0C 58 BE
 F1 45 84 FE 2C 72 E1 B9 F6 67 82 27 24 98 FC 69
 7D 38 38 06 EF 89 26 D2 F2 02 FB D0 59 69 93 DE
 10 33 B5 C3 3C 2F D9 76 CA AB 1D EC E9 F8 9E 9B
 89 45 15 EF 4C 49 2F 1F B2 37 DF 7D 89 1E 08 EA
 19 44 A5 2B 2D 62 A0 0F E5 71 16 AE 0A 65 36 4A
 8E D1 40 B0 63 CF 19 84 81 D5 51 05 B9 6C 06 F6
 A9 46 08 8A 43 E2 CE 6D EE 23 61 D5 BE 5C E4 45
 F7 6D 73 90 1E A2 8E 71 4E D0 04 66 37 14 3F 7C
 DD 36 B4 9D 41 72 E1 9F 84 AE D0 2C A8 7B B7 C3
 34 AA BE 0E 75 40 15 88 FC 81 F1 8E CB 5D 8A C4
 8C 10 3F 8B 37 07 EC E7 B1 BA B3 5D B5 8D 3E 10
 7A C4 09 BE 93 53 48 3F 4D 98 02 4E D8 DC 18 AF
 24 9C 06 9A BF C6 33 7B E6 F9 90 84 2A 4C 35 10
 D2 18 12 BA 6B 75 9C 5C 50 AF 51 08 BF AB B0 23
 CD E7 55 9F 17 15 52 EE 5B 31 D8 3F 44 88 9F 89
 03 61 A6 5E D1 12 A0 0B 35 83 A3 F8 39 32 72 74
 F5 92 A6 E9 26 01 F8 8E 63 CD CB 2F 45 06 7D 51
 12 5A E4 10 11 34 F6 0B 8C 93 47 00 71 4D C4 53
 1E 57 34 11 1D 24 7A A9 FD A5 33 A2 07 31 88 9C
 2F EE 8B 4F 8E E0 BB 55 0B 91 AC CC 97 BC 81 D2
 96 D7 9F BF 55 63 B5 85 D2 19 5C B2 7C 31 BC 80
 82 CF 85 C0 93 D5 96 8E F0 D7 22 FA C8 D1 62 59
 98 5D D3 B8 63 4A 45 2F 8A F5 69 0B 8E 7C D3 E7
 E0 AC E7 25 97 B0 34 ED 83 84 AA 3B 42 CE DB E8
 E8 0B E6 A8 85 89 F7 38 0E ED 83 33 07 6F A3 21
 3C 15 52 7B CB 16 19 C1 05 BD 25 B1 F2 F6 10 1A
 35 F3 76 D6 0B 57 83 CC 10 FF A4 BD B6 E5 15 D2
 6A 9C 14 6D C7 42 D2 18 F6 8F B6 E3 A8 4B C4 52
 F8 E5 89 46 2D AD 58 A9 EC 2F B2 04 E5 C4 58 1E
 9E 27 FE 3C 9D 83 E0 B9 E8 95 25 8D 13 7B C0 9C
 EC 75 F2 E0 C6 21 6F 99 B8 4A 2E 2D 35 A2 5D 62
 56 DD 26 FF 01 86 C5 15 F5 37 7D C6 B0 87 87 6F
 C7 F9 B2 7E BA E4 99 76 19 16 9B BC CF 99 C8 9A
 55 95 B5 4E ED 59 A4 78 46 D4 53 4F D4 F0 33 3D
 4C 97 02 37 61 6E 63 2E F9 12 83 07 5B 4F 68 6A
 3B 0E 8F E1 CE BD 2F 23 1A 21 FB 5C 53 26 8C 18
 75 6C 99 7F D7 49 10 1E 83 C0 A8 4E 81 EA F6 81
 E0 15 12 46 1B 86 B1 80 03 AC 20 2F 84 51 72 FC
 FC C0 43 CC 08 18 A5 11 96 53 42 3B 21 C6 53 DC
 1A 44 81 86 6A DC F8 E8 8F 67 DD B7 67 04 2C CF
 83 AB F2 11 5D B1 3C 9F 40 86 E9 E2 CD E9 32 A0
 CD 0C 32 34 BB FC 8A 13 07 54 63 73 A5 08 AA 11
 5C 37 80 5F C5 84 66 16 33 9E 6D F6 DC 5B AB 1A
 92 0E D1 EC 33 13 61 81 CD 34 62 63 02 96 01 54
 58 EC 99 0D 7E C0 EB B6 B6 6A 23 C5 FE EF 4E 50
 DE BE 12 A2 38 61 51 00 19 62 78 58 9A 8A BF C6
 E2 55 BD 5D 5F E0 35 B9 6E 65 C3 35 BA 63 3A A6
 FB 67 67 77 D0 82 96 AA CC 69 AC 38 C7 BD 04 6F
 46 4B E5 8B EE BE 51 7D 94 AF 05 E9 17 73 99 2D
 00 D5 BF F2 21 33 2F 93 78 CD 4B 66 00 D0 C5 F4
 67 13 A2 C1 13 08 B9 65 66 CC DB 8B 1C FC 46 14
 8C 82 F4 81 92 5D 59 71 7E ED AD 50 02 26 78 96
 F9 1A 1B 2D 90 0B EE C5 80 29 0B 1C 07 A5 55 A8
 13 C8 FA E2 88 90 50 B6 46 75 0C 52 CF 73 83 2C
 A1 DC 60 D7 30 01 92 BD D7 09 99 A1 38 18 C5 D7
 F2 DB 46 0C FD 35 D8 4B B2 47 78 B0 91 EC 51 82
 B7 DC 3D AA E0 8C 3D 55 9A B6 9D 3E 58 C6 47 66
 AE 96 F5 5A BD A1 52 4B 95 77 CC 55 80 BA 3B 75
 66 87 9C CA A5 45 10 A8 8F D9 B7 F6 D0 5E EB 86
 27 33 98 0F B5 9E 51 D5 DB DA E8 0F 18 FF BD 19
 F2 CB C9 D4 6E 96 09 65 B7 40 56 71 51 C8 5D 17
 2B B3 43 1B 33 86 C8 46 5F AA F9 BD E3 84 CD 39
 F7 B6 47 8F 03 FC B2 BB B0 32 F5 AE 4D 97 E8 B8
 80 8C 92 5B E6 83 E8 25 C1 5B FF CF B4 B1 26 C0
 9D 0E B5 D2 F9 93 05 75 A7 16 79 D2 03 3F 30 57
 74 30 90 74 FB D1 33 FF A2 F5 65 B5 A2 DF 8C 18
 80 46 61 08 76 7F 99 79 47 16 9E EC 54 A5 14 36
 E8 FE 5F 56 03 98 8E 25 F7 C7 8B 91 22 93 F8 A8
 F9 1D F9 39 1A 6B C5 17 70 DF 4A 8B 3C 7F 1D 4C
 70 19 CE B7 EC A0 B3 54 3B 88 54 4F E6 1A 33 AA
 88 A9 A8 CA 20 0E F9 68 C0 94 50 27 81 31 D7 39
 61 40 4E 80 B7 A5 4B BB 71 A4 00 BD A1 CF A9 5A
 9D 1D 8A 43 C4 C0 0E DD 1C 52 5B BD F9 4C 39 9E
 C3 A7 31 BD 73 39 F0 98 01 45 96 4A 54 4D 36 70
 98 0C AE 79 FB 56 14 49 2B D5 9F 21 94 C0 C7 4C
 EE 92 81 79 68 87 5D 68 B6 DB 37 91 9A D4 B5 4A
 F7 91 5F 33 86 D1 EC 11 54 9C 3F 2D 63 61 0D 80
 13 43 B6 6E 23 12 01 F8 C7 60 78 CD 12 C6 07 0D
 0E D9 36 C8 88 77 BF 4B 93 56 F4 53 51 50 4D 5B
 7D BF D6 DC 8E F4 48 E3 EC 64 0D 0D 90 A2 8F 45
 A1 0B 48 49 7D 7E 36 99 60 5D FB C5 C9 F7 BC 29
 96 44 F8 F1 EE A4 21 C5 15 14 BC 23 39 E5 75 1C
 8E E3 AD F7 8B DA EF EC 0E E9 E6 EA 5F 4F 68 DC
 26 41 F0 0E 8B 40 03 68 D9 5F 7D 94 B6 FD E1 C2
 F8 08 25 60 41 8F 3F C4 ED 35 22 E0 9D 09 50 AC
 51 FA D9 E4 5B 72 50 6E 4E A1 C4 4B 45 FC 61 06
 07 D0 C2 B2 0A 60 B3 7B 9E 4A 20 5C B1 4F 8A 75
 01 54 24 C7 1F 43 E4 9F CD FE 27 39 3D C1 B9 96
 7B CF 9E AB E1 50 94 C6 D6 DA 85 30 DF B2 CD 10
 62 31 A7 85 7A 45 B4 56 30 1B 6E A0 BA ED CE D6
 35 5C 68 7D 3A 6C 6B 30 06 2E 31 89 4B A1 A9 9F
 79 9A 57 9B 24 E3 1B B3 1C 1B 38 96 FE F2 B3 DD
 CD 4F B6 0B 94 00 19 E1 D1 67 A8 14 05 39 7A 27
 CD DB 6F DB B8 0B D2 A5 CA 89 8B C8 9D 59 61 2D
 0D 9B 32 0B A5 79 0E EC EC 37 54 8A B2 07 4C 00
 6F 4B 5E BD AA 7D 1A 63 79 7C 91 10 5E B7 FA 84
 4E E0 82 29 67 FB CF 1C 81 1E 93 60 F6 15 07 ED
 E1 5A B2 03 B8 33 9B 32 6B B9 3D A1 73 D4 A5 BD
 AB 98 74 87 46 30 A3 8E 85 00 32 A2 F7 DF 2C DA
 AC 4C A8 B6 B9 42 33 71 93 BB 51 82 1A F9 05 95
 65 BD 2C E4 C7 8C EB 29 5A 52 0C 88 C5 9F 40 11
 EC E9 2C 51 DD 95 C5 92 1E 24 24 8E 4E 58 3C 30
 AA 74 70 78 80 15 57 73 59 44 16 D1 1D 7E 97 08
 37 05 85 C5 AE 37 EE 31 2B 75 AC EE 39 5A 4A 1F
 0D 35 EE 66 71 1B 3C 46 4C 4A E9 A1 58 0F 52 29
 7D 14 16 97 84 F7 FE AE 15 8B BA EF 63 67 ED 78
 8F 3F 49 E6 48 83 04 FA 6E 86 E4 FE 85 C9 D4 3D
 1C 6B A0 7A 27 6E E4 23 B5 77 34 28 81 53 25 81
 1E CC D8 2D A5 2F 5B 5A 75 3B 29 88 54 D8 D6 9B
 6B 87 51 13 F5 1B 94 75 86 49 CA B9 E4 43 5B E1
 D2 31 C6 E3 13 03 AC 7C C4 A7 09 80 49 AA 46 D9
 37 1C 24 66 45 11 C3 4F 6C A6 BD F4 BE BE 78 84
 51 0C 2C DB 12 99 7F 0A 60 75 13 D3 C5 D6 67 29
 90 6A 94 E0 23 E2 8D 89 6B 6A 6F AA 1E A9 42 2B
 C5 21 EC C3 BE 84 EF AF 22 8D 35 27 D5 4F 20 CC
 CC A2 39 7A CB 4C 89 FA 6E B4 0F 54 38 C7 B6 42
 EE F1 30 5D A7 0E 23 75 E2 4F 21 6D 71 8B EE 92
 4A 39 5B 1D 5C 67 49 46 41 9B 32 6F 37 58 2A 54
 89 5D 3B 10 3F A9 8A 87 1F 2D 93 9E DA 93 E1 69
 C5 45 0F DD 30 F3 60 F2 D0 A8 25 F5 58 98 DF A7
 ED 81 4C 4A 6E FA 34 F1 32 B3 D5 AF 87 4E 6B 44
 5D BF 70 A4 42 94 9C 03 26 80 C8 77 48 1C A7 6C
 3E C1 E8 C8 67 6C 93 D1 87 95 B7 4F 27 2D CA 86
 77 61 35 6A CE 0A 7D 9D 6C F6 2C 50 4C C8 C1 36
 94 8F DA DC 6A A2 0B 75 70 D8 09 23 CC B5 A2 EE
 F4 4B BD 85 7A 02 9D 14 E7 C7 4B 90 EE 4C 90 B0
 F6 2F D2 C3 53 31 19 4D B6 0A 7C 43 E7 04 D6 8B
 D6 3C 72 2F 19 D0 16 EB 2E D6 87 7D EA 29 63 2B
 6D 3D D6 EB BD 5D 49 4F 72 15 3D 33 A9 F9 FC 7A
 50 A9 AD F5 C3 6B 48 23 11 3B 8E 9A 2A F5 94 9D
 1D 7A 12 C3 B8 75 74 23 3D DB 25 2E E9 90 C0 EB
 94 C2 53 4A 3C E2 80 97 45 36 F2 E3 29 45 11 4D
 EE 36 41 96 F6 0D 62 0C 38 4D 3C 98 A5 10 8B 89
 C6 24 90 F6 28 F8 9D AB B2 61 35 73 6D 3E 97 AA
 22 BB 48 2D 85 D4 A9 8B 40 6F F1 A3 A2 FC C1 F6
 A2 20 DE DB F8 2E 77 80 35 50 87 83 46 24 1A 9C
 F0 B3 97 30 F9 17 72 31 1A 50 76 EB 17 E0 E7 69
 07 4B 7C F7 A1 B0 3C 2D F2 D3 33 AD 77 ED 3A 1A
 40 D5 6E D9 48 A0 C3 91 D4 25 0A C3 B8 F7 0E 27
 53 B8 5E F3 B2 07 12 6E C3 13 7C 48 A2 DB 17 AC
 A5 60 30 D5 5F 12 F2 C1 88 DF 51 A9 28 B4 1F CD
 C8 6B 77 C4 05 E4 B5 99 94 32 9F 2F A1 7E 76 2C
 23 DD EC 90 3A 57 A8 86 87 93 E2 7F 3B 23 97 A7
 CB 01 12 7A 8F 9A 98 26 36 A8 D5 C2 ED 0D 8E 41
 75 A3 A1 F7 2D 54 51 11 8B 71 DC 80 69 88 5B 76
 92 2A 8A 43 83 C9 09 49 98 A3 CF 16 D9 11 E2 69
 25 CD F4 FD 6D 89 56 9D 7B 90 99 A6 F9 58 BD FE
 B7 BD 96 17 A8 2E DF 03 53 45 62 37 FC 6F 0B 95
 B3 01 6F AF D7 3A 1C 86 50 AE EA 74 15 20 39 A8
 3C A7 67 A8 E6 DA A1 94 E9 E9 83 33 30 F2 AA 43
 E9 23 D3 2E 32 8F 3F 74 05 97 11 8B 4F 9C CC AA
 2D 86 60 C9 F4 70 45 09 31 C6 6F 91 7E 48 85 FD
 E9 14 F9 53 54 A6 E3 5F 1D FF 6A FE 33 A0 53 25
 CB A3 18 BD E2 02 C2 96 ED B3 BF C9 5C B3 10 9D
 7D E9 D7 1F 35 09 B1 42 F3 03 52 23 21 F4 CE 40
 A5 8C C6 57 A3 52 36 05 3F 81 41 1E FB BF 11 8D
 EF E3 0D 7C 62 06 D0 61 12 B9 7B 3C 6A 43 3E 88
 3B AF 68 B8 8B F9 A9 B4 C9 D0 E9 C3 05 89 E6 D6
 31 62 88 15 38 34 16 46 18 D5 9E 45 18 8A 9F 79
 40 43 4C 11 36 8B CC 91 7D C2 CC 23 12 FC 88 4E
 F4 66 26 2E DF D5 77 90 00 A5 97 CE 7E 7C D9 03
 5D 8E 56 2B 1E 5A 8B 4D 89 8E 8D A1 7F A8 0D 3E
 46 23 22 F5 81 D8 EB D5 11 76 00 24 14 29 C3 B4
 4E B1 E7 7A 60 13 F9 8C 87 F3 A9 82 B9 08 37 5D
 B1 16 9B A4 D4 27 14 5F 2C 7E 03 46 75 7F CC 00
 61 A4 F5 55 F6 48 CD 89 75 70 F8 B4 27 F4 5E BE
 3C C3 AC AF 75 81 E7 D3 7D 4D 47 8D 99 00 27 54
 92 9B 43 DD D2 17 72 48 8A 3D 1D 7C F2 A1 B9 CC
 A9 94 5A 71 00 85 BA 00 A4 C7 E9 7D 60 75 89 35
* End 2006336401 784128703