* LTspice Encrypted File
* 
* This encrypted file has been supplied by a 3rd
* party vendor that does not wish to publicize
* the technology used to implement this library.
* 
* Permission is granted to use this file for
* simulations but not to reverse engineer its
* contents.
* 
* Begin:
 44 DD 71 B2 1C 90 87 70 6F 38 FD DF 70 50 F6 11
 93 08 5D AC 51 AE 79 3E 3C D8 C4 8B 8E D7 F4 1B
 27 6E CB 07 45 C5 30 78 26 45 3A 5D A2 D4 49 B1
 EB 85 87 A6 36 66 C3 3A 61 B5 78 B9 63 E6 10 2A
 E6 C1 BA 2E 17 BA F4 5F 64 07 D1 91 62 6F 32 5E
 BE 5A 2E D0 8D A3 0E 89 92 94 D5 E1 A0 A7 7D E9
 EF 21 D2 03 02 90 32 7C B9 9D E3 3A CD 1D 1E 61
 EA 89 AC 5E 75 4F FC D5 FA 14 D8 86 60 63 C3 EB
 40 0C 8D BA 26 AB 5F 33 BA 67 81 53 36 69 E5 02
 2B 65 FC 5C A2 F1 6E C7 06 74 21 F8 73 A0 F8 19
 56 67 95 BC 35 FB 7C 27 82 DD A8 12 5D 29 6E 57
 1F A0 D5 4F A9 53 40 06 86 CF 43 58 2B AF BB 08
 97 FC B2 AA 41 C4 9E F3 31 CB 6A 18 69 3D BB 04
 74 04 18 58 E3 0C 8B 39 BA E9 B7 65 A2 A5 86 BB
 73 17 D9 8E 5C DE 50 7A 36 77 91 E3 34 2A E4 2A
 66 FE 44 0A 80 92 E2 43 9D 97 9B 52 F2 E0 88 91
 76 20 B8 18 AE 60 AB 91 06 43 AB 1A F5 AC 89 0B
 03 E9 A1 CA 63 5D 07 C4 CB 42 24 5A 13 B2 F2 EF
 80 43 11 49 1D 23 9B 1A 19 92 3A 68 B2 0E A8 FF
 FF D6 8E F7 D8 2C FD 30 FC A1 F8 72 0C 74 46 05
 70 B6 71 7D 8C 7A AD 6C A4 48 48 64 0F B6 16 2F
 D9 25 A4 5D 2C DD 3E E7 B5 C0 5B 04 61 A9 77 AD
 3A A4 E8 BE 46 CC 49 C3 D8 EB C3 0C EB 3C 09 A7
 AC D6 5F 10 9A 86 6B E1 0B B6 53 16 D4 C3 54 8C
 BE 9F AB FB 46 CE B8 D8 AA 22 58 44 54 B7 9A FE
 2E 36 10 13 4D BE 3A E0 90 CB 61 16 42 CC 7A 5C
 27 2E 98 AE E7 D1 17 7B B5 26 E1 CE BA 26 C6 16
 61 B6 FB 4B A7 3B BB E4 02 6F 90 D7 6A 2E D8 E3
 91 9B F1 71 45 62 79 3E DC 21 0D A1 DB 88 22 50
 4B A8 29 78 4A FC 2C 8E 86 FD C2 F8 5E C7 1D 92
 B0 F3 B7 13 A9 5E 9E 25 8F BB 71 07 64 67 9A 13
 A7 45 4A 20 96 4A 88 15 2B 5B 79 E8 DC 5E 29 AF
 35 C5 5B 91 41 D3 E1 33 FC 8F 92 CC 56 39 E5 D4
 1C FF 48 45 E5 C4 11 A7 2F F6 F2 97 F2 8F F6 B7
 FD E1 A1 03 C4 F1 EE 46 72 BA F4 FF 96 F8 BD 4D
 E8 51 62 4A 6F 88 2E 19 4B 68 82 9D 58 0D 44 51
 4B A4 82 9A EF 5C 36 8D B5 FC 45 79 BE 55 CA D2
 11 18 2F 65 71 02 F8 AF F3 57 05 33 A4 5F C6 7A
 2D E4 4F C5 10 C1 61 7B 70 C8 58 70 08 06 72 37
 EE 99 B2 F3 F4 DF E8 ED 70 95 BA FB 72 10 69 F7
 82 D9 5C 9D F6 D1 04 81 E7 D3 B6 4E 87 C6 79 EB
 67 08 DB FF 56 52 7B 7A 13 62 8E 40 DC A3 E8 D0
 1B B3 16 82 2D C0 84 5E A9 51 95 FA DC CD 8C E2
 58 60 23 89 7D A8 85 07 B4 46 46 00 03 00 94 CE
 B8 31 B0 6F 82 1B FB 77 26 EF 30 E3 0A A2 46 1C
 7C 20 75 24 E3 23 BA 2D 8F B1 A9 87 C4 66 66 1E
 B7 0D 11 87 C5 89 E3 E0 00 A3 3F 1A 39 23 18 4A
 31 1A D8 59 27 1B C7 57 21 9B B2 3D C4 0B F2 2D
 BD 54 33 D3 23 3B 6B 40 E3 D5 5D 69 0A DB 63 8A
 53 DD F0 4D B6 AA AF 9B D2 1A 86 F8 08 95 37 62
 AD B3 52 A0 77 C5 0E A2 18 C5 07 1C B1 51 F3 60
 BD EF 93 86 2F 00 91 19 11 3C 7F 6C EA 2D F2 E0
 9C 85 6A E0 56 45 92 CB 74 18 0C 94 33 3D F1 E6
 44 48 96 3F 52 4B 6D B9 64 55 6F A2 2B 64 D2 BC
 23 0D B6 A1 0F B4 0A 76 05 32 F9 73 FD 6F DF CD
 C9 1F 96 7A D0 42 1B 1C F9 24 76 5C 5E C8 B6 D9
 9A 88 AF 52 BD B9 0B EE F6 E1 3A 17 EF A9 AA 76
 FE FF 09 7D 45 A0 7C 2A 7E 6D 4E C5 63 08 FC 27
 BA 56 E7 2A 3A 79 24 1D B6 19 F6 A0 2A E2 0D 02
 5C 23 B3 22 7E F7 AD 45 6F 96 38 F0 80 AA E9 3D
 49 06 3A EC 85 94 3E 8F 0E 30 95 13 22 22 77 13
 1F B2 41 14 DF EE 6B 91 21 41 EC 1E 4F 27 D8 B9
 99 A9 48 14 14 FE 23 E3 71 2D CD 45 7F F6 83 BB
 CA B7 3B FC 5A 33 C8 32 D9 82 D7 7C CD 06 25 0E
 47 AD 79 17 73 9A B4 5A 16 FB DC A0 14 B7 0F B0
 54 58 C8 82 38 A5 8C 00 3B 14 FA 6B 16 19 97 74
 C0 DA B4 B6 8E 41 77 49 C8 95 8C B1 86 6A 7B 27
 64 BF D6 AA AF 67 C5 7E 02 E6 F5 7D 0A 15 6B 39
 29 E7 8F 0F 53 7C 8D 25 7A ED FD E1 27 16 22 D2
 63 E5 C3 34 96 B7 71 7D 05 5B BC 00 9A E5 BD 77
 47 17 4C CD E7 52 19 C2 6E 1C 9C 45 F0 E1 2F 71
 DA 71 AA 4E 82 96 C8 D4 F5 EC 56 55 CE F2 2C 9E
 41 B2 A4 ED 14 D2 46 04 80 27 BC 2C 6B 56 37 7C
 1E 27 EC 34 A8 BB F5 79 3E 42 26 F0 B9 DA A6 DD
 5E 3A AF B9 C4 68 6F BA AF B6 9D 56 46 A6 6F A9
 F9 67 80 63 A3 DE 62 F4 E7 AF 51 98 79 0C B0 B6
 50 69 2A BD D4 F4 34 1D C8 A8 22 2D C1 49 12 CE
 2E 1A 81 A8 AA 2F 10 81 AF 14 66 A1 C3 57 79 62
 C6 19 C9 40 5D 91 FC D7 1A A6 3E DB 49 2A C8 8E
 F3 95 CD C9 C2 68 41 BA 97 0B F5 AE F3 F5 44 A1
 34 04 04 BF 50 32 AD E5 AC BC 73 5E 55 78 9A 7D
 EC E1 44 97 78 F3 9D 60 5D 5C 0F 2F C7 1E 29 BB
 00 18 E3 22 9D AA 71 79 E0 70 2E 87 BF CC A0 35
 43 6F 2B 4F E8 BB 35 9F A3 2D 7B 66 8B 79 ED F5
 27 7B 4B 12 6C 5C 55 FF 06 7A CC F6 F2 3C F4 34
 62 FC 9D EF 9E 65 F7 9A 68 6D 8E BD 6A 06 23 15
 81 D4 F6 CA 21 BF BC D5 2F C6 FC 44 49 B3 6F 2D
 88 C7 41 62 1B 49 09 AA 3E B2 6C 25 E2 8A 7B 83
 07 4C 42 57 04 73 84 3B 14 18 ED 1D C9 A6 E2 00
 04 C5 EA C2 7F 18 8A 57 BD CC A0 CA D7 BE BB 5D
 9F 58 ED 2E 57 7B 60 5D 2F CC 20 0A 0D FF C2 B3
 41 70 A1 D6 7B A0 8E DC 30 4C 29 4D E4 92 A8 4A
 1F 62 EB D4 EB 8F C4 88 5C 97 ED F2 8E BA 44 67
 79 5C 39 0D A4 BC CF C3 84 D0 83 30 38 FE F5 D5
 1F E7 5D A4 00 87 EF 53 AF 31 C6 C2 B9 D4 09 A2
 12 14 51 76 A9 30 37 12 F1 6C DC 43 D6 3C 0E 95
 21 12 BB 34 76 B3 95 B5 87 DB C1 F1 AD E5 50 39
 72 E7 B7 90 73 4C 03 FC 56 49 A7 32 D7 B4 82 66
 64 59 A5 B5 9F 16 E0 04 C6 E5 39 E7 EF B1 F6 F8
 10 7F 88 2A 17 76 6B 91 D7 28 3A 35 D7 B4 29 66
 51 86 55 4F 8E E7 EC 63 01 A2 3F 0C 68 87 77 36
 B7 0F ED 20 82 CD C9 52 76 7C 98 7A 88 CE 4D BB
 4A 0D 07 AB 5A E1 EF C9 2B 84 0F 98 16 25 97 5F
 45 CA 9B 73 2A 3E 35 EB 6B CD C8 2A 6C 98 40 7A
 42 BC 9B D2 43 9D 8C 75 09 57 2B 7D 11 57 D0 88
 70 62 5D 72 F9 F8 60 12 48 3E 3D 46 1D 33 05 97
 DA 1B AC 82 36 D1 49 81 FA 57 C5 00 16 A7 57 DB
 C9 EE E3 EB 03 4B A9 BC D4 5C B8 BB 74 00 A1 DB
 B0 69 A5 F7 7F DE 66 49 2C BB F0 51 41 65 F7 EE
 FE 6D 63 26 7C D9 14 38 4D AA EE 3F C8 85 C1 EA
 03 DE 78 DD 23 10 8F BE 4F F4 CC B0 39 F8 F3 75
 0B E6 17 A6 DE E9 C8 11 03 1A DC A6 69 FC 6E 7A
 20 9A 2A 60 3B 53 BE 35 E1 20 FB 65 1F DD AC 06
 4C F1 C0 7A 91 A7 FC 3F 81 CA 78 21 81 CC 0A 94
 F4 0F 35 2A D0 CD 40 A4 EA F7 6B C0 BD 9B BD EE
 FB C2 26 F7 BD AE 3B B4 E7 9A D3 9A 66 D8 5E E6
 5E 5E 74 35 2A E1 36 C5 B6 42 CA F1 19 6F 7B 69
 E7 37 22 02 7E 4D 3E 3F 27 E1 58 4A 8E 47 DD 43
 B1 32 0A 59 00 45 28 DB CD AB A8 EB 9F 0A 32 1C
 0B 99 3B 03 74 D0 26 A4 12 1F CB AD 35 3E 6D AA
 6A 27 4F 3A 61 67 5C 89 21 04 A1 7C 32 BF F8 34
 BA A4 8D E8 C9 3C 6D 1A 92 D3 7D C4 98 ED 6C B9
 B0 5E DB 5C 16 72 1C 4B B1 2A C4 4D 86 70 A9 D6
 9E 92 D3 CD 60 52 BC B2 E4 24 A2 EC 78 0C B4 DF
 A6 8D 2F A1 54 D5 9B B8 7F 9A 43 0B 38 DC 0F CD
 B7 FE 3C 3D F2 43 98 5D E2 2D 6E 36 2C 9D E0 05
 21 06 09 A2 48 68 E4 42 81 C1 1D 4B FD 77 FE B7
 A0 90 6E 77 31 B1 CF 00 3B D1 D9 29 D6 F0 5D FB
 62 9A 96 E1 85 05 C3 2A 0A 45 52 5D 6D A5 04 BB
 3A 87 5B 4F 02 39 1D CE 64 5F 52 8E 42 68 2D A9
 99 13 88 62 2A 5E 38 E0 01 45 22 2D 23 E8 5C ED
 E3 19 A4 A0 C7 33 D6 DC 12 0D DB BA 62 DF AA 73
 AC 06 AC C4 6D 5C 72 78 B2 BE 7A 21 77 F5 A6 BD
 26 2C 9D 72 83 E9 DC 27 11 B0 02 15 3B C1 23 88
 BB 55 90 95 96 AB C3 30 63 8A 7D 3A B9 55 A7 BA
 14 A2 DD 3C 78 0A 76 C8 83 FA F7 D6 32 E9 62 A5
 D0 73 14 18 16 7F F6 1E 0C DF 1F 68 D1 11 C0 53
 80 6C DB 89 5F B3 F5 BE C6 87 FD DE 26 7C 9A FE
 8C FC 0C AB B1 D8 5C 46 13 CB 19 74 48 5C A5 32
 C0 36 53 B6 59 3F BB 1A B6 A0 F7 2B 90 41 47 2A
 DB BE 1F 93 AA FC D0 F6 A4 D2 0E E7 75 BF 60 F7
 0D FA 1C 38 A4 1A 79 92 A5 74 AB 73 7F EF C0 E2
 6E 86 F2 79 73 4D E1 36 CA 66 F0 DA 4F 3F 17 FD
 50 78 D4 62 8C 01 F7 7C 2D 9B AC 32 46 CA F3 56
 AF D0 53 08 AB 31 38 3A 6A C5 74 0D E3 4A 90 4E
 A2 BC F0 A5 92 E8 06 66 9C EA 26 35 3E 0F 19 36
 27 47 E2 A0 75 65 A3 C5 E9 8F CD D1 8D 2C 71 46
 05 2F 45 B0 11 62 54 6B B0 DC 34 42 0C 85 7B 49
 37 CD 86 AB BB C8 E5 93 F3 EB DD CF F3 7F 58 82
 BA A9 84 9B A9 4A 1A 51 41 87 6B D1 7F 07 1D 55
 B4 49 2C E5 38 F3 22 1A 12 D2 6C B5 E2 56 F4 5F
 35 9F 7E 7D 08 01 BE A7 2C 3E 3C C2 58 84 F2 DF
 70 27 4B BC 93 7F 79 F5 C2 71 A3 2E 50 2F 78 CD
 1F 2F 99 7C 68 2B A5 10 EB A8 B6 B4 E1 16 4B F7
 A8 CB 62 FD 9C 5A 7E 6E 02 05 D5 AB 1C CA 57 60
 9A 15 06 FA 16 A7 07 61 BF 2D E2 BF C5 A8 2D 6D
 FF 6A 51 3C 2E 17 07 D1 02 5E C9 5E FE 57 92 EA
 14 45 6F 46 DE 11 46 76 E3 C4 AD C1 E5 FD 34 2D
 4E 8C F8 81 F1 59 69 18 41 84 7E 0C 30 B5 5B E9
 27 F2 D5 9B 45 E0 FC C0 DD 63 11 B9 84 26 AB E2
 F2 EC CD ED 3A 8D 37 0C FE C9 EE 27 B3 FD 0F 03
 FA 2C B0 ED 33 30 57 5D C0 F4 FF 9A BA F1 3F B3
 2D C4 3D A9 3F 16 73 D4 D3 CF D5 BA 68 FA 02 B0
 C2 6D A1 AC 1E 14 24 DE 7F C3 93 E7 8F 26 9C C9
 CD 34 07 54 B8 13 D9 6B 54 ED 38 C6 A2 F4 68 69
 84 50 D5 22 F4 0A AF 0B B2 10 1E 7B 7D 8F EA A1
 71 43 F3 CF 02 E3 5B E8 35 F1 34 C2 7B DE 51 C7
 DE 98 30 1B D0 D5 FE 52 41 19 B1 18 C2 66 CB 21
 89 F4 6E A9 EA BE 8B 4C 97 DF 18 C9 EF 0C 9B 9B
 B6 D7 19 EA 5C 0C CD D6 10 0B F9 38 52 35 3F 68
 B9 7E F1 B2 7C B1 C8 BB 18 0C 9A 69 7D 26 AF EC
 61 2B 5F 7B 9F 9A CC E8 B8 FE D5 9D 9C 38 25 BB
 80 A9 8B 15 ED 71 31 EF 22 22 FF E7 AC E7 6E C3
 5A A1 E3 4D 73 61 F7 9C 0F 80 6B 53 B5 F0 A8 E0
 97 04 FC 2A 93 87 C4 47 20 C2 80 74 F1 0B 95 06
 3D 3D 34 2B 89 4C 9D 26 11 3B BC 47 66 4E AC C4
 63 E7 2D B9 27 5F 5D 66 75 C5 0A 5B B9 B5 62 7A
 03 21 58 0F D1 EA 77 D2 2A 41 EE 1C DB 98 53 E9
 DC CE A3 9B 92 DF 1F CD 1F 6C F0 D3 DF 50 15 C5
 9E 9E 32 F0 5A 2B B3 D4 84 DE 93 A1 F9 3C D5 0B
 4A 8B B9 FD 60 9B F5 C0 C0 95 5D 17 32 9E 14 7C
 C3 D5 9A 3F 03 8C E8 50 FD 26 3E A4 FE 06 16 BA
 72 E2 13 3B 6B B9 A5 35 E8 0E D8 4D 50 CE 0C 2F
 5D A9 A6 5A 97 13 BF 5A 6A BD 69 83 AF 52 18 F5
 36 76 53 C7 3D 91 78 FE DC 85 04 38 89 F9 4E C2
 A6 3F 08 33 E9 FA A4 68 AB C3 D6 07 F7 F5 50 0A
 1F 1B 26 58 C9 86 A0 0D A3 E6 43 E0 C3 35 04 81
 6A 38 F5 1A F0 DD 61 38 62 86 97 58 E0 43 19 6E
 0C C4 47 09 31 1F 8B BB 28 49 BB 1A 9F 0B AF DF
 31 67 E1 30 63 9F FD 3C B8 4D A3 0C E5 51 B1 7E
 E7 07 17 FB 7F 44 76 AB 95 63 3A 46 D9 33 CA E9
 5A 4C 84 B3 F3 2E 93 E5 E9 E8 8F FA A4 CD 39 1A
 FC 0F C9 54 96 59 F3 28 F1 64 E4 A1 FB 8E 3A 66
 68 43 1D 1D A6 B7 5A DD F7 84 2F 72 CF 7C D5 AB
 58 A6 17 6B C0 3C E5 D0 9A 79 55 B3 34 5A 7F 43
 37 CB 01 3C 07 13 B4 25 10 23 37 E9 60 23 96 81
 1A 2C 54 9F 1C BD E6 E8 A0 F4 17 C0 75 E7 A9 FE
 EE CD 60 46 8E A5 30 BD 11 2E 08 23 80 70 8F 3C
 C9 E0 F3 64 E9 BD 1B CE 4C 91 F0 71 AF 43 2B 24
 71 4B D9 DD B5 6B 8A 0D 0F BD 0C DB 8E 8B 20 D6
 D1 B8 51 6D 3E 05 92 A8 60 C2 A9 C3 ED 36 13 32
 47 97 59 04 CB 30 7F 50 B5 71 48 A5 BC 6F 41 C8
 06 FF F3 08 39 B3 67 0C 1B A2 5F F4 DE 4C 4E 83
 F9 67 11 0F C9 EF EF DE DA F1 7A 81 B5 AA B5 C2
 FA B0 C8 90 3D A9 0D 17 1B F4 F3 4C 2F 95 51 6C
 95 E9 C9 A5 E6 85 FF 24 F7 ED EE B0 4D BA 9D 32
 88 57 3D C9 12 35 E0 DA 99 F3 8C EC 21 18 F0 94
 73 C8 B1 5D 26 39 F9 2C 60 3F 76 BF D7 49 97 99
 C6 8A 1E A7 F8 59 67 7F AF D0 AA E8 2D AA 0B E5
 B7 A2 42 85 45 D6 56 C8 F2 57 0E EF 3B EA D8 52
 D8 66 75 42 CA C0 E6 6A 9D 3D 3E DF 5A 09 D8 ED
 10 8B 69 BD 81 08 FB 60 0D 8A E5 B3 2B 4F 19 70
 8D F5 DD A2 C5 3A 1D A5 10 04 27 C7 14 EC 01 B2
 B2 E0 8C 13 87 80 96 56 62 87 DD A6 D9 FB 2C 7B
 C0 49 29 4A 29 2F D9 61 EB B3 AE 4F 28 58 7F 87
 A1 C1 43 8E 50 9B 78 3D DB C3 FB E4 B8 62 07 C9
 8D 8C 81 39 E9 79 8A 34 D1 CE 6A 00 85 29 E5 22
 8D 6F FD 27 B1 2E 75 1A 8C 99 10 BB 9A 52 FF C5
 D0 55 34 8F E7 58 B2 AC 42 FE 4B 59 47 B5 DE DD
 ED 16 73 22 2E 49 00 A5 72 0D 47 4C F5 77 C2 42
 76 49 FA 82 63 79 D0 4C CB FB 7D 46 4E 4A 7D 58
 0B 47 57 A2 C6 81 97 A6 AB 25 40 1B FF 65 D6 82
 86 3A 9B 94 C5 06 86 66 C5 F9 12 79 35 72 B9 EE
 78 9C 27 8A BB F8 E9 7E BE 1B CE 8E 55 D7 12 8D
 F9 13 64 EB F6 63 6D 67 DA 63 74 F0 69 26 4A 71
 3E 1A F8 47 15 F8 18 F1 36 B9 69 3F 4D 75 D9 24
 00 17 33 E6 08 34 BB 60 F9 18 36 66 D8 EA 59 4C
 75 3F 46 F1 3F 04 37 28 D7 9E E0 F6 35 E2 4F D3
 72 D0 5B 9F E8 AA D3 1A F7 7A 4B 8C 5B 31 6B B2
 0F 7D 1F 0B 4A 6B 29 22 DB 68 63 2E B6 D3 57 09
 BF EB 59 A9 B8 99 BC 61 C7 07 E1 53 A6 54 41 3C
 59 63 B6 03 D5 3A 58 85 DA 58 A0 17 D1 92 0B 6C
 DE 5C 89 13 78 38 06 6B 05 B7 87 E0 63 D1 67 D1
 54 82 CD 4C 10 0F D2 93 99 E0 CE 46 A6 89 91 F9
 59 6E DE 19 3A B9 44 C3 F0 54 93 19 E4 0C A1 54
 57 51 80 4D C6 EA 14 9B 2C E4 94 F9 E5 80 E9 0C
 23 7F BC 45 48 A4 E7 DB 2E 79 55 AB A6 1B AC DF
 E8 8B DA 3B F4 07 21 83 F5 DD BE E3 D8 2F 5A C1
 31 52 A0 CF B8 21 87 C2 09 BF 78 7C B1 32 BE C4
 78 65 3C 5D 24 E8 8F 9A 7D BF 4E 56 ED 0A 64 5A
 CA 90 21 65 22 F9 E7 0C 9F 11 5F 1F EE B5 53 B4
 B6 60 72 FD 77 B3 BB BB 45 D8 24 1A 99 98 DD AC
 5F 44 40 95 1A 12 12 19 49 59 1F D5 69 0F 5D E4
 06 F9 18 54 A3 FB 4B 16 F7 88 08 9A 01 16 90 06
 59 9A 17 AA 74 07 D3 32 35 30 79 F1 72 66 21 E9
 60 9E E4 E8 65 D4 CA 76 67 D7 49 2F A3 BD 5B 84
 A4 FA 9E FF F6 0A 70 32 6D 9B 94 65 18 F9 D7 D4
 A7 7B 4E E0 C6 49 A9 88 39 DC AD BE 83 05 82 70
 FF 0D 71 04 29 EC 6E 42 47 45 FD F8 C4 CD A7 91
 51 2B 70 C3 12 24 8E 4C 59 14 27 EC 3F 32 DC F8
 D6 A5 DC 68 80 C6 81 7C D2 06 7B FC 32 AC E8 93
 A9 7B EB F4 56 5A B7 F8 6E 6C 31 F9 3E 92 8B 97
 B7 5F F7 23 4C BF 2E 15 E4 4B C4 B9 F4 7F 05 7B
 6A 55 F8 66 F4 08 0E 52 B1 77 B1 2D 66 6E 15 47
 B8 F1 D6 4D 04 60 4D C0 98 AB 23 9F 7F 50 99 7D
 57 B4 89 D8 2A 1B F5 E5 9D 70 45 34 5A D3 3E 62
 3E 66 E6 EE 1C 47 7C 1E FF 4B CA B7 BD AF 63 95
 DB 5B CB 99 57 6E C4 54 1D 9C F6 7B 32 3C 70 29
 B4 3C 02 1C 7E 64 ED 9E 03 BB 45 BB 20 39 67 5C
 E0 5E B5 B5 1C 42 51 E0 AD C2 98 3C DE 46 EB AF
 B6 90 68 0E 2D 3D D0 B6 79 58 7C F1 26 1B AB 32
 99 B6 5A 6B 76 F6 EC F2 D5 A0 04 44 29 49 19 6C
 9C AA D5 36 0F 8C CD 26 73 A5 78 73 4C FF 50 A3
 1D 3D 39 EE 0B 8E 85 87 83 F5 F6 2E B7 BE 7E AE
 06 F6 AE D7 E6 E2 0F 7F 51 D8 2C 1F E9 88 81 0D
 42 F9 F1 9D 31 B7 D4 24 CE A0 E8 A5 C6 EB FD 06
 40 16 7F 6E 7F DD 07 C4 08 10 31 EE 17 E1 BA C9
 30 91 86 84 BA 10 E8 D7 1C 3F 53 97 95 BD 9B 65
 9B 9F A1 B9 2D 6E 7B 8E CC 31 9C 14 71 47 11 FD
 0D 9C 53 45 9E 64 CB 84 11 0D 2B 78 09 05 FE 00
 58 7D 7E B1 FF AC AE 42 48 27 88 0C 5C CF 5D B5
 15 9D 4D 9D 40 4E F3 A8 D9 CE 8F 0F EB 30 26 EE
 91 B8 C8 C1 B2 D9 4B 94 68 B4 8C 72 D6 67 53 B9
 13 BB B2 BE 60 D0 C1 60 00 C9 78 A1 03 0D 87 FD
 4E AD 98 CF 44 BF BF 42 26 7E 05 9A 6D 42 1A 94
 76 CB D5 F3 1C AB 63 37 F3 6D F2 59 66 74 F2 98
 36 5C 3A F5 95 60 EC D5 55 C4 DF 2A 35 F5 74 30
 9E 53 8D 2D 86 5F 36 52 67 22 74 72 26 66 1B DE
 6D 20 E1 B1 DF 4C 28 A2 F1 F8 1A B1 61 8A 86 FB
 93 F3 19 A3 EC 62 26 68 8A 99 B1 F1 D1 06 CF A3
 3A 47 C3 76 8A CC 51 0F 9C B4 5D 20 CE 05 10 F7
 EA 86 44 82 AE 66 E0 6D 01 A0 8D 1E 80 8F 38 B0
 18 C3 43 7D 3A 35 9C D2 A0 A8 D1 00 5A 1F E4 FC
 04 F3 82 85 89 00 FA 77 90 EB 4B 9B D8 F0 CC 26
 8A A4 AC 50 5D 42 F1 36 FB 6A C2 48 96 9D CF 97
 AF 3D 44 44 D7 A3 88 61 17 AC 68 1D 7A 4A F8 8C
 A9 90 1B F3 FC DB D5 10 5C E3 51 3F 90 44 7E FE
 A6 D9 3C 9E C0 FB FF F8 82 E4 6B 79 A6 DE 81 09
 09 C2 AC 13 C1 9B 0E 3C 59 05 B2 62 E1 D3 3E 8E
 8D E7 10 39 7F E4 4A 3B 23 BB 26 93 96 F6 C6 9D
 34 82 ED 52 00 B0 AA FA A1 6C CB 70 6C 46 D9 73
 25 2A 96 75 9D A4 AF 5F 14 52 7B 0A 8C 70 70 37
 C9 1F 68 96 D0 5B B8 13 12 BB 71 83 46 29 25 D2
 58 14 69 E2 B1 45 D6 DE 3B E6 14 37 21 31 B4 9E
 E1 A3 7D 33 19 DD F1 13 18 A1 BA 0D 31 63 3A C3
 0B 7E 5D 8E E6 C1 CE 73 3E 6E F7 7E AC 31 FA A6
 28 9F 18 31 5D 0F C6 66 96 C8 1C CF 92 95 68 E6
 5C 57 CF A6 52 8B 69 A8 08 D4 E3 DE 9B 05 F8 E2
 72 A9 A5 89 6D 44 1F C1 AE 84 85 8E BE 1B 8B 24
 AA 96 89 89 61 C6 E4 AA 0B 75 03 75 79 9C 3A 73
 5E 7F EC 70 54 FF 26 64 1F D9 66 61 31 30 62 52
 D0 69 4E BC F4 CB FB E1 94 1B 28 BB B0 06 F8 91
 06 52 61 70 0C 9F B7 45 E5 78 F4 02 67 24 B5 2F
 99 9E 32 96 30 87 0B 52 AE 5C 0B 1C 48 14 96 21
 BF 38 62 09 44 B2 B5 AB 22 1E F3 05 90 FE 4B 0D
 DD D2 3F 1E A2 F1 B4 9A 44 69 1D AC 93 1D 24 57
 DA A3 25 4A 83 4E 9A 8D 28 19 4C 9D 1D 08 68 90
 F0 23 D9 35 3B 3F 42 EB D7 D9 A3 0C 19 B5 B2 F3
 99 0A 90 E5 4B BF 42 3D 2C BC F3 47 C1 25 E3 30
 D3 B2 10 D4 D6 3A D1 3B B0 E9 18 65 0F F1 13 67
 11 0F 61 1F 62 A9 EF 96 7F 77 3E 1A 85 55 CE 5F
 E9 58 E7 69 A1 91 2C 46 27 B3 4E C4 8F A6 B9 54
 3F FB D8 0F B7 87 B8 B9 71 4A C6 C7 1E E7 A3 52
 88 5C 45 08 B0 34 C0 2A 08 82 C9 0C D9 BB 55 9D
 B6 4C 0D 7C FA 63 15 FA 30 AD AD 2D 6C 2D 83 F2
 42 19 86 74 19 DE 53 84 62 01 8A 3C FA 84 15 EF
 9D 86 75 FB 71 FE B3 1B F4 58 45 56 8F CB 9D 6E
 40 1F BC E5 0C C2 14 2A 80 08 26 14 9E 03 6C 60
 A4 A6 D8 12 61 29 B8 B0 AF DB F4 42 96 E6 C3 4C
 8D DD BF 98 D2 DB F1 7D EC 17 2A AC 24 9F 5F 33
 6B FA 7A F0 43 BE F2 C3 09 DE A0 EE E5 64 1C 9B
 16 C9 BA 40 3E 95 82 BA A3 A2 0E 1C CB 25 7C 88
 DE 0F 9E B3 3D D9 58 65 7E FD 1C 8F 00 DD 1A D4
 54 7E 96 2A F9 A2 7A 25 B7 3A A9 B7 35 69 0C 54
 9D D1 AF 8D 9C 30 99 F1 25 72 D0 17 D3 41 9F 72
 04 8F 65 05 C3 41 D3 31 14 8E 3D 8A D4 85 CF C6
 69 04 54 E4 55 62 1C 0B 62 11 8C 17 52 E9 F2 30
 29 6F 4A 78 4D 9D B3 37 68 25 1E 13 54 17 53 73
 BF D4 85 35 1E 8E C5 7A ED 5F 77 B4 EF 44 1E 90
 9A BC BD 4C EB 36 B4 37 01 C9 9D 47 F4 CA 9C 14
 2D 98 A2 B7 8A 96 1C 38 BC 6C D0 BF 79 49 EA 79
 E7 CB BF 5E 93 A6 21 8E 07 4B 80 13 4B 0D 5F BF
 FC BB F1 B8 F2 B2 84 27 71 B3 54 DD 18 F0 31 10
 19 62 45 62 B7 AA AF F8 71 FB E1 D7 85 E4 30 B7
 F2 B2 16 25 29 A6 DF 17 72 B2 D5 D9 DD 4D BF A8
 E9 FE 78 3E 20 D0 98 7C A8 47 F3 B3 73 44 3A D5
 1F 10 3C 93 30 D5 8D 50 5C 0D 03 3D 59 A3 6A 51
 E8 D8 0B 77 83 36 61 8E E3 D8 FB E2 E3 67 D1 99
 22 C2 FA 3D 7E 0F 9E 5C 6A C3 2F 8F 87 D8 02 28
 B0 29 E7 60 C0 F5 3C 76 69 1E 97 E6 E3 5A 5C D3
 44 34 85 21 94 E9 32 9B 88 E6 B4 97 BB 41 01 14
 51 86 E3 1E FA 60 EB 5D 1E 88 3F 66 3D 81 EF 92
 80 01 D8 D0 CC FC 29 36 99 1C 9C A5 26 B1 CF 4D
 98 85 52 20 04 9C 84 DD 52 53 06 C3 E8 9B 67 C2
 40 68 14 53 65 9B 09 6F 3D 75 70 34 F8 DE 52 B0
 4F F5 97 44 6D B9 E8 83 07 B3 A3 77 82 4B D6 42
 52 C0 B1 A3 D5 BD FF 3D 39 03 1A A3 02 0B C8 6B
 8D 76 A4 76 3D 1B 24 8A 0D B6 F5 55 35 B1 64 02
 AA BF 65 3D 38 33 71 DF AE 10 4E F4 68 64 7A E3
 35 3C 41 1F 4A 46 30 51 9D 57 51 56 86 D2 B9 DE
 D0 E5 E2 17 58 B1 9A DD CA B0 C4 F0 7C 29 08 F1
 18 4E BA 3D 29 98 56 E1 E5 09 AF AE A2 FE 5C 18
 BF D2 EF 32 78 73 41 AB 37 53 2B 72 A3 FA FE 11
 E3 D7 39 12 A3 0D 54 FB D6 BB EC FD C1 B4 79 CE
 90 3B 78 7E CE D8 AE 02 2D 8B FF 5E F6 A7 60 A6
 C7 2F 4C C1 00 A9 30 F0 8E 49 76 52 65 F6 AB 62
 CC 95 CB 26 69 4B 32 68 04 05 EC 01 1C B1 C0 44
 3E A1 34 01 4F C7 9D 1D 41 8A D2 9C 24 09 57 6C
 36 1D 04 A5 59 2B C5 25 5D 32 11 7E CE 2C 7B DE
 4E FD 5D 07 60 F3 6F 30 BC A9 7B D8 B4 99 61 A1
 CF A9 7A 07 31 E5 42 30 AB CE 39 3E 3F 93 48 C6
 F5 C8 4F 01 E2 23 FC AB FB BF C3 8B 2E 33 E8 57
 6C 27 70 D5 63 5E 77 CF 7D 00 8F 45 E2 B7 A9 97
 2B 1F B8 A3 26 26 A0 6A 9A 42 0F 7E 33 17 03 37
 84 11 11 F5 BC 91 DD 53 72 B9 E3 A3 53 12 97 FB
 DF FE 69 9E 48 8E 1A 08 0C 1C 0A FB 05 98 73 38
 D5 0B 0E 64 57 4C 4C F2 2A 67 12 CC C0 D7 F4 97
 E3 54 3E 77 7D 2D 58 7E 15 AF 88 96 87 D6 18 76
 02 66 BD 73 4E 09 48 1B 36 B7 40 DE C8 3C 33 AB
 DB FE 05 25 BC A5 84 07 6C F1 1D 3E 87 72 5B 10
 6E 98 05 51 39 16 A9 AD DC 64 9C F4 4F 25 79 60
 B7 62 74 8B 09 3E 92 E7 FB A7 DE 01 E6 07 EB 2F
 8D F0 35 09 4E 33 E1 A6 D5 27 13 11 B3 18 FA 3D
 E9 72 7C 1B A3 F4 50 45 24 ED E3 10 BC A7 F8 AF
 6E F9 59 A4 1D 12 67 51 CF F9 D1 6A BF B6 44 FE
 0D 15 18 65 73 8C 25 84 97 43 30 87 55 B2 01 39
 C4 20 40 1D F5 15 1D F8 BF E5 70 A0 F3 46 13 7C
 7C 7C E4 CE 58 69 1E 2A 37 68 EA D8 5D BC 0A 0E
 B9 D8 CC 5C 22 69 73 F7 A3 1B 9D 73 C0 49 84 9F
 65 0F FF 1D B9 9A 29 37 82 14 0A 5E 7A 1E 81 51
 57 A7 96 2D BD 46 86 BC 62 00 7E 74 FF 47 4B B3
 CC F4 82 AE F1 7F 5A 09 83 77 CB FE F0 A1 F5 4A
 BE E6 54 11 F1 D7 02 EE 29 FD 43 FA E3 FB CC 5A
 67 8D 28 A8 32 36 6F FF 6E 22 91 F2 FB 30 4B A2
 C7 C0 35 C6 E6 59 62 E4 A3 D1 98 31 38 58 33 D2
 34 11 81 81 C1 5A 98 FE 2A FB A2 2D 6A 86 36 5A
 3B 4B 2C 36 3E 70 D3 6F C1 02 FE 00 98 B5 50 9F
 53 BB 4E 20 81 DE DC A3 6B DA 6E 6B 51 DD 23 82
 CA 85 28 29 D3 53 DD A2 0F 42 7E BF 3B D6 AE 82
* End 1342502643 1577616294