* LTspice Encrypted File
* 
* This encrypted file has been supplied by a 3rd
* party vendor that does not wish to publicize
* the technology used to implement this library.
* 
* Permission is granted to use this file for
* simulations but not to reverse engineer its
* contents.
* 
* Begin:
 DD 9C 51 B4 47 90 01 45 8B E4 FA E4 B2 08 E9 69
 68 29 83 BF FF 76 3B C2 DC B2 A8 FF F1 5D E4 8E
 AD BE 35 3C 79 17 B5 53 84 15 8A 35 F6 B4 ED 22
 5A B5 B9 E9 2C 5C 92 7F 43 94 F3 A6 62 E6 B9 A7
 89 B5 81 52 EE CB F5 72 3F E3 DD 89 8E 70 BF B0
 49 54 53 04 F7 C8 E0 12 C0 6A 38 F9 D7 06 E9 C7
 41 B6 D0 22 5C CC 8E DE 83 87 91 B7 81 83 AA 34
 44 23 6A A9 B1 D4 A5 CD 6B 14 93 FA 6C EE 2D 2C
 25 80 86 7D 40 47 85 28 EF F2 B9 39 72 6D DD 7D
 FA F9 5B 13 30 4B F1 43 F7 1C 47 FD 0A 2C 4E DB
 96 CC 23 D8 B4 02 B9 1F 51 76 02 A3 79 31 5E 23
 EB 19 AD AE 4A C3 AA 1D BB AF A9 06 4B C1 25 77
 61 E9 F0 44 DA 70 D3 F0 CE F3 BD 2C A5 47 40 12
 60 21 AE 88 94 73 AB 90 8B CE E1 D5 6C A4 36 A8
 D1 30 13 5A 3A 74 35 A7 93 57 3A C9 B7 74 BA 78
 59 2D 3A CD 15 5B 51 3B B2 19 62 D0 33 2A B8 1B
 3E 9C AE 9D 19 EB BF 60 94 E0 BF 95 17 AD 1C 3D
 F9 97 C4 F7 1B 03 59 9B C1 E6 12 88 A3 32 1C 77
 8B B6 DD 0F 0E 60 D8 F2 D8 4B A6 22 06 F9 47 6B
 FE 2C FB 0E 62 F5 36 F6 00 3A 3C 77 B1 5F D5 96
 3B 10 A6 80 40 F9 8D BC A1 79 CE 2F DF F8 E8 67
 66 7A A8 06 DC DA CA C6 D0 C4 7D 9F 29 68 40 35
 8D B0 41 45 D9 9C 5C 8B AC B3 B9 0C F5 C8 D2 82
 53 73 23 07 24 EA 68 E9 3A D9 14 90 1D D5 D0 C4
 F9 75 17 F4 96 4C 55 DA ED C2 3F 3B C8 7D 4C 6D
 AC 7F 97 B2 A9 E5 A9 F3 5D 51 CA FF 67 A5 FC 8D
 7E 9E E2 77 77 76 CB FD 7F 45 A5 1E 4A EB C4 7C
 6F 81 A7 7A 67 2F 9C 91 F5 78 FC E6 58 B6 50 9E
 1C 31 43 70 72 D9 78 50 33 A1 3D B5 3D C5 EC F8
 4A EA 5C 2E 8B 68 2B 52 68 13 05 B2 89 1B C6 1D
 A3 1B 49 44 02 BF 88 4E DD AA 5D 74 35 09 1C 66
 EE 8E 0A 08 5C 59 C6 D6 1A D9 62 52 B8 58 B3 0E
 2B 6A D4 FF 1F F9 BD 32 79 3B 55 C8 07 E7 A4 4D
 02 24 62 BD A5 88 26 3C 25 BF 6A 4F 54 AD ED 23
 83 BA 16 ED 1B 7F F5 07 3D 14 54 20 F4 0C FB D3
 5D 85 70 6F 03 09 C3 D2 0C 29 4F 9D 83 2E 2E 9F
 94 BC A5 25 59 F2 AD 9D C6 11 9A D7 4A EB 9E C4
 44 10 4A 32 8B E2 42 3A F9 65 D0 67 15 CC C6 D4
 BA 7B 7E 46 76 10 8B 10 9E BA EB B4 55 78 7F 06
 69 D5 AE 46 88 BE A4 A1 6B E2 6E BB A5 0E 27 82
 BD 21 B1 F9 85 B4 5E AB BF F5 C0 0B A3 9E 8E 21
 6C 88 10 2F B0 2A AA D2 1A 83 63 2A 48 BC B0 D5
 CD 11 62 75 C5 F1 A1 29 9B 29 4D 16 5D F1 E6 08
 EF 03 07 5D 34 99 92 4F BC C7 FA 67 E3 3F 61 76
 2C 8E FF A5 D0 B6 EA B6 60 8C 02 23 47 66 D4 B6
 84 94 13 57 A9 90 58 0C CB 89 91 4B FA 46 26 7C
 14 13 B2 C0 49 2E 32 AB 7D 6C BE 33 59 E5 F3 71
 04 3B 8B 53 EB 06 3D 4C 79 36 C0 ED 22 34 9B 4B
 19 AB 1E 2A 32 ED 65 4E 32 AD D3 ED 48 D0 D1 69
 73 AF 76 AB 29 9F 2D 29 85 59 DB 4A 0F D8 9B E9
 A2 BD 15 3F 28 1C 7B 69 C1 16 35 FA AC 5B 66 F4
 94 07 C4 36 F2 8C D6 87 3D D5 99 1F 64 14 12 88
 3A 5A E8 73 1D 5B F2 4A B4 D9 F1 46 49 50 23 8E
 BA 83 30 5D 72 E0 30 3E 37 DF A4 BC 20 63 CF 0E
 71 47 E1 F8 18 09 40 7D 6A EA 7C B5 43 C6 C1 ED
 B8 51 66 74 CA 4A 92 B9 2B 8A 70 5E 37 12 08 02
 2F 37 75 5A 34 60 F9 D2 01 B3 0D D2 28 94 42 CD
 43 E2 7A 2F B9 98 2F C0 DD 91 BC C3 A2 26 F2 E1
 12 14 31 42 38 65 00 67 41 E9 6D DE 7F 69 ED 8D
 97 79 80 A2 C6 F5 AA D7 B0 39 A3 0C 09 07 D9 25
 0B 76 57 B8 B7 0C D8 52 1E 50 6D C1 36 8A 6E E0
 99 80 11 40 F2 AE B7 E5 03 84 9D 27 90 FC A5 1A
 CE 2F 6C FB E7 92 3A 6F 97 53 30 C1 3D E9 0D 03
 F4 88 2C C3 FE CE 6A C5 4F 98 D2 F4 F1 1B E3 80
 AC 78 9F CB 0B C7 E0 FD 51 BA 8E 3A 4D CF A7 6D
 96 5C D5 5F 6E 90 52 DA 94 FD A5 4C F3 71 B4 D4
 B7 6F DE 69 C6 57 92 09 75 82 B3 6D 25 BB FD 44
 2B 7A FA 74 E9 64 0C 97 0E E5 55 26 57 9C 5D A4
 37 67 04 A7 C2 01 78 42 86 47 97 89 46 8F 4D 3E
 E8 CC B0 A6 16 FA 4A 05 83 BA 1A F1 8A D0 3C 27
 81 86 4B 00 3F 12 94 2C 78 1D 70 45 6A 64 A2 26
 5F DB E5 A5 AF 84 09 BA B5 3E 7F 81 7E ED 14 59
 C1 BD D9 DE BE 61 2A 11 32 30 BA 5E 36 A7 6B 82
 17 6E 01 49 2F F2 61 2B 28 3B BE 64 34 89 77 E2
 AB 5F 83 AE 7D 39 84 C0 9B 31 7B AF C3 44 F7 80
 16 6C 82 01 E7 2F 0A 91 91 C9 35 A2 06 A9 9F 8E
 96 3C F6 8E 45 0E 42 A8 9E 2F 69 58 60 96 FE 10
 2A B5 9D 8D 2B B6 59 75 6E B5 33 1F 2B E7 13 9A
 87 05 D9 86 51 41 85 1A B1 E7 76 46 E5 03 57 83
 EE 4F B7 3D D1 91 3E 57 8F 0F C5 F4 ED 2F 8C 78
 CE 07 FF 26 B8 0A EF 8A 45 32 8E B9 1F 2B C4 C1
 FF B1 17 D9 95 D3 44 20 42 FE 20 3F D9 2F 04 D0
 9D 9A 38 B0 73 33 45 46 96 F7 1C 15 55 E1 55 18
 E9 C8 A0 BA D1 76 BF 2A 3F 47 1C F5 CE AD 58 F5
 D4 06 A2 28 A9 6D 29 A7 6E 3B 2A 17 D6 26 B5 92
 D8 7B 7D 76 F3 27 51 D6 51 B9 72 76 49 B7 63 7A
 47 26 98 59 29 2C E7 02 0F 91 75 71 AE EB A6 EF
 55 EB 65 6C EC BF 88 F6 7C A2 B2 B5 DE BE 0B 84
 E6 C9 B4 08 6C 5C 27 62 F0 5F A8 66 20 42 F4 E6
 83 CF DE AD AF 1F 80 7D 03 1D DE 7D A7 7C 06 93
 87 82 6A AD FE 61 B1 FB AA 66 35 57 B6 3F 3A 46
 C6 6F 00 2E 18 3A 43 23 CF 02 FB 95 55 37 C3 D0
 EA D4 5C 78 A8 F6 D2 78 45 FA D2 58 D1 27 26 DD
 B1 CB 38 27 A3 28 62 FA 05 40 DD 27 42 EF 47 07
 1E 70 7B 7D 91 C9 85 82 7F 4A F5 80 ED 79 FB 60
 CC 46 FA 5B E1 E6 5B 66 F0 A9 80 D5 79 E6 0B 3E
 FC C4 92 6F 6D 50 3E BD 0B 04 46 12 95 32 F2 34
 52 50 CE 46 6C D5 2E 67 F6 F4 61 C1 ED 5E 5D 8E
 2C 75 B3 CF 29 FA 7E 94 81 E5 5C 5A BC B4 B7 E9
 1D FB F9 A3 D0 92 09 52 FD 54 97 17 34 A3 73 44
 C9 CC 6F 81 D3 9F BB BA C9 4B 8B B5 D9 80 12 A4
 F2 33 81 57 A2 0C BA BD C8 D5 AF A3 00 2E 7E 31
 35 42 94 5C 67 C8 91 A2 F9 00 DE 42 DA 89 03 85
 F9 AD B4 34 CE 9E 08 AB 8C 75 A7 DA 4A F6 11 2F
 D4 85 BB 69 0F 4A 2B CE 3A 2A AE CA 0B 84 2D CA
 EB DE 4C 3D AC 74 40 7B FE 44 8F E6 54 23 D7 84
 0F F3 CC 9B 24 BB 82 D3 3F 6C 5D B5 7C 2B 2F EF
 6C 2C 0B AA 3E 9F D1 30 0D 29 33 FB 03 10 7A E2
 FF DC A6 AB 8E 0B 03 31 5C 18 97 84 AD 74 33 7E
 88 D6 01 42 DF 2F DB 6C B4 41 74 40 1F 82 8B C0
 02 88 00 F8 0F F3 0D 8F 40 BD 54 E3 92 12 7F E1
 36 60 AF A7 8F BE E0 8F 46 C5 7A 07 7B 43 46 9E
 95 39 E2 5A A6 8B 14 84 58 36 90 75 91 50 D8 C7
 70 59 40 23 6C 31 D1 4A 60 9B DA 94 F4 46 B2 45
 26 99 4F A0 A4 BC 62 2F 4C A4 41 6D 27 32 F1 79
 80 11 16 81 26 12 4B B3 76 61 FD 79 D3 1D A9 B5
 C3 75 6C 65 4B C1 E7 97 88 3B 1D C1 14 94 0D C1
 34 1A E2 D0 FE ED D0 EE 8B CC 4A 2C F1 8B B5 A1
 53 91 6D D0 C7 E4 52 13 72 70 76 B1 CE 5F 53 A1
 0C BC 17 38 DC CA A9 61 1A F5 38 05 7C DF 82 92
 FA F5 9D 17 12 77 CC 0B 2C 88 41 1E 3F 53 61 C1
 C0 B7 E0 58 D4 DD 6E E8 7D 63 BE CE F4 D4 2B 96
 60 BE 30 85 1A 71 FD 20 C4 54 39 B9 4D E5 46 81
 3E EC 72 45 4D 78 07 B8 F1 45 F2 E7 A4 CE A3 3C
 A3 50 78 FB D0 53 EF 16 70 74 DE 99 46 3F AF 36
 05 7D 8C AA 05 DE C7 47 86 29 26 34 06 1A EC DC
 09 F1 23 E1 D4 58 58 32 7F 99 80 92 3D 3B FF 83
 D8 38 FD B3 F4 D9 CC AF 5B DA 42 B9 C6 BF 41 07
 A2 2B 91 1E 95 1B B5 C6 17 12 A6 C8 32 7E EF 8D
 12 0F 3B F6 E0 3B B1 5F E0 58 58 19 0C C9 A4 09
 9E B7 18 66 90 15 73 9C AD 16 F2 4F B3 BE 94 13
 AE D4 DF 00 62 D9 E0 44 B4 8B 25 49 BE 27 E2 72
 00 CF 2B B6 B0 6A 76 80 41 F3 FB D2 32 80 5F 05
 AC A5 29 44 AA A7 69 9F 51 6A 12 B5 34 9C 9D 60
 3F 11 80 30 4B 24 96 04 E2 40 A9 DD 54 8C 41 D8
 0F E5 05 54 E7 F8 BC 0E 0B 28 D4 48 2A B6 6F A8
 67 53 82 5A F3 17 5F 2E 9E 0E B6 A3 4F F1 00 D3
 35 DE 6A D6 AE FA E2 0F D1 42 C6 84 39 96 7C 52
 ED 18 25 D6 FC 31 39 D8 DA 3E C2 6E 16 5E 3B 62
 5B BB E3 18 CE B9 14 89 9C 84 D8 0A B1 02 4B BD
 74 44 DA CB C0 0A 5F 7B 84 26 20 91 8C 3C D7 79
 76 FE 89 A7 A5 CB 1E 74 F0 CF 84 14 12 2F 7E BA
 2C 36 9B A1 54 3C 72 D2 35 12 11 BD 00 9A 53 6E
 C5 7D 6E 2F FE 6A B2 42 03 0F CC 41 B3 0A 6F E8
 4B 85 98 9E 70 D6 18 04 3F FF F5 E5 1B 09 EC 9E
 67 77 22 A9 77 8B 79 1E FC 9E 74 BE 2D C5 0A 2D
 EC 2C EB 18 CB 1A 35 30 76 1B 0B 30 03 47 EA CF
 57 9D 2C 9F 0C 88 28 B1 55 4F 7B 16 EF D7 46 33
 F1 2F ED A8 70 7E 18 47 27 FA 8C FC AA C8 B2 CA
 34 05 0D 21 69 B8 32 8A 24 D3 CD 95 CF AD 85 D5
 D8 1B 81 27 5B 74 A7 2C E5 E4 12 82 D1 EE 67 A7
 05 CE 25 C9 58 C6 4C C9 08 D0 01 74 B7 8C 3F 85
 89 B6 74 9C 64 D1 95 55 CE 26 E9 50 18 91 11 54
 7F D7 F8 8A A0 31 3D FA F4 69 0B 5E A4 AE 3D 48
 3C EC 80 01 1B 40 5E 4D 4D E0 25 89 B7 DD AA 6F
 0D 98 65 2A 40 EA D6 38 35 0C 75 68 AA C2 1A 6B
 60 67 F1 7C C9 4B 6F F4 7D 73 BE 4F 68 82 73 A5
 40 EC 8A 42 27 6A F3 0F 67 74 48 70 D1 D0 B0 3C
 58 EA F9 DC 93 B4 6F E2 3F 16 6E 2A 05 95 3A D7
 41 3B 40 C7 CF 35 D4 1B BE 28 DC 0E 8E AE 7D 2D
 1F A4 BA 13 AC CD E6 46 7E F3 B7 C4 0D AB 71 14
 A1 24 0D CA 8D 81 99 37 35 53 E4 6F FC 45 73 A3
 FE 0C A0 EE 60 93 E4 49 4F 8B E2 DE 86 19 FE 27
 8E 34 17 49 9A 4B D0 62 5A 8D 71 C2 FB A3 DD 9F
 CD A2 D8 C5 93 29 61 AB 14 70 DB 29 6A CD 32 60
 AF 81 AD 68 F4 F4 D1 A7 44 D7 F1 12 58 25 62 42
 79 9E EE 12 42 AD 71 4A 0F C5 E3 B3 BA D7 65 8B
 AE 2F 20 23 AC 10 61 9E 40 36 85 7D D0 79 23 43
 F3 CB 1E F4 3D AD 74 58 C5 CA 93 AC 80 53 80 10
 31 EB 3D 3C 62 EF 88 1B DA 9B 05 B8 F0 36 92 41
 5A A3 BB 10 9C 24 13 49 8C D0 B0 90 99 C8 A9 94
 9C AF 48 FF E6 9A CF 32 10 84 83 ED D0 69 46 42
 C4 1B C0 85 3D 1B 44 FC 3C FC 35 9C DC 1C E6 76
 2C 25 2C 89 44 77 57 F5 FF 1A D4 FC 3B 6C 8C 03
 76 63 63 29 79 23 36 DC CC 17 6F 8E 54 F2 E1 AD
 ED 5A 2D 77 39 AF 8E 5F 32 F1 A8 0F 69 F4 A5 F7
 40 4A CB 02 25 EB 7D CE 0B 23 26 66 B6 7C 7F DB
 A9 48 BB 5D A6 12 05 12 46 64 C8 FE 95 74 A8 02
 9C 66 A7 21 E0 EE 91 E4 33 83 54 31 28 FF 88 A0
 96 F4 E2 44 DD BF 0A 5E 84 73 72 8F FB 84 09 41
 88 FF FE 9F 2C C7 A9 1B E3 2F 87 E6 68 C6 3A F1
 B0 97 0E EC CC 64 A5 1C F1 F3 29 27 CC 59 F4 39
 B2 73 9E 83 DE 37 49 E6 13 10 79 1C DD 7E 8F ED
 F5 2C DB 2D 23 CD 9B 4C 72 F9 6E FE 42 08 F8 99
 CD 50 D7 69 D6 1C EF 67 6B 49 B1 45 64 C4 14 47
 FF 3E 34 DC 81 A8 95 9D A5 08 E1 A8 43 B5 B7 A7
 50 ED 33 D4 78 ED 02 E9 20 4F AB 68 A2 29 12 45
 C6 99 AA 96 C5 31 2C 91 80 54 7C A3 FF AB 4E 9D
 6A 33 60 22 4D 79 16 23 BE 74 38 D8 D7 5E CA 48
 3F 39 2E B9 2D 09 3A 96 02 05 F8 AD 74 37 BA 85
 D0 7F 43 9A F5 74 06 CC 5D B4 6F F3 9A DD 72 B2
 68 B8 84 CE 58 6F 68 95 80 AE 91 FD EF 52 BD D3
 16 40 C6 55 93 36 AF C4 EC 63 E5 0C 97 6A B8 BE
 3F FC 07 2B E2 55 BC E7 51 4D EC A0 8A F1 EC B7
 91 0C A6 E5 EB BC 9E F2 CC E0 A6 84 82 44 B6 32
 58 12 C8 91 32 86 1A 7B C4 D6 22 49 F4 75 D4 E7
 8E 42 43 3C E8 E4 F1 B9 BB 28 34 7B 10 25 BD DB
 92 2D 69 03 D9 50 02 01 A8 11 2A 66 C5 C3 FB C9
 14 7F 61 E0 1C 99 83 02 99 72 61 C3 CC 10 76 A3
 9E 2D 2B 0F 7A DE AB 36 D8 FE 08 0C 60 4A 36 C4
 20 4C 8A 8B AD 61 B6 E5 40 75 D9 E4 98 B9 C7 7F
 9D 05 14 BE D2 16 66 11 F6 FB 99 19 E4 0F 84 65
 78 99 E6 44 0E 4D 6A AC 8B E1 5B 3F EF CE 01 67
 EA 65 38 3B A2 23 94 00 48 26 87 24 AC 49 FA 0F
 BA B5 3B D7 28 0A 5B BD AC FD 7E 4A 03 DD B0 D9
 E2 29 D3 DE 23 41 75 EA B9 1F 86 2B 2C 3B 35 A5
 9F 75 E2 73 4B 92 61 86 52 B9 0C FA 43 F1 20 05
 CC 7C AE 8B 58 34 32 D3 90 60 58 CD 36 0B 30 96
 14 1B 23 AD 1B 44 85 EA 05 00 D9 F1 68 78 2A 2D
 BA 34 7B 99 90 D8 4A EC 9B 32 28 77 09 18 F5 06
 90 9D C4 BC 15 B4 F9 24 EE AD 33 72 BD A2 C0 95
 21 3F 49 64 B8 8A 92 5C 7C 1F 64 F7 34 0C 5F 3F
 38 D1 5E 92 B1 1A 58 D5 BB BC F5 26 19 9F 4A B7
 39 8C 8C F2 F6 5A 59 48 14 72 A0 36 03 32 F9 7D
 A0 34 F7 CB 8C F6 5F 71 FB E2 78 10 C0 1E 09 53
 72 82 E1 28 0A 39 D0 98 E4 DB FA C2 8B 6E 78 10
 B3 29 86 C0 FC C7 86 CE 45 CB 82 8E F8 0A 03 C2
 FB 95 78 49 B2 4B 80 74 83 40 28 44 81 28 BB 14
 7E 4B 1B 4A 26 74 CC 09 11 95 A3 2E 6C DD D5 89
 20 BC A4 73 65 05 11 48 01 EE 2B 3E AC 00 F9 BB
 E1 9F 7B 53 D7 60 D5 30 B2 E4 27 87 63 2D 61 8E
 83 10 93 53 C8 C3 F5 7E 0C 2C 7C 18 A2 9B 16 6A
 45 E3 D8 EC 6C 84 3B CA 6B 8A CF 53 BD BB 3A D8
 27 A3 87 C1 CB CE 90 0C FF 7F DC F9 FE C6 36 5E
 42 DA 65 7A 76 47 3E 8F E6 C0 67 5E 42 BE 9F 96
 AC F2 52 4B E2 F6 A6 9F B9 E1 9A 3C A2 EB 27 AB
 46 0A 87 7C CE 26 C1 CF DD 53 75 30 03 4F 39 DA
 CD BD 21 62 22 7A CE C0 E3 60 DE 7A 8D 91 1E 18
 DB 47 2B 66 03 57 73 A5 4F 17 B8 8B 9A 99 1C 43
 DF 34 B7 72 0B BC 46 56 21 BA 5A 2F 3B 15 79 D4
 79 A6 0B 85 25 E3 DA 1B FC 8F 2F 5E B1 CD E6 91
 95 24 01 FA 82 53 44 4D 32 0A D1 F8 67 32 89 2C
 8C 2C F8 E2 36 03 3E D8 56 22 93 15 11 C8 68 E3
 89 D8 64 BB 0A 7D 7C 30 5B F0 58 67 FC 33 18 48
 FA E5 61 A3 43 7C 31 BA 16 99 63 9B F8 5A 6D 14
 1A 98 8C 9B 06 0B F2 30 01 09 F4 31 96 E0 6A 2C
 0B 00 6A 31 BB 9D C7 F5 93 A4 3C 86 76 37 C3 D7
 9D E3 55 3E 4E A6 2E 5E 1A 4E 66 24 B8 A2 A4 8C
 B9 5A 11 33 68 4E A5 9E 4E 6E 26 FC 13 32 7A 81
 3F E5 E9 6F FB DF BB 77 D1 59 F7 97 4C 2C A6 39
 23 59 16 AE CA 24 01 FB 57 BD 26 1B 7A 5B 59 94
 7A 43 4A D0 16 39 C8 EF CA 4C 66 56 AD 1C CF 70
 EF 50 24 99 9E 30 4E 91 D8 1E 51 62 66 04 20 50
 06 61 65 B3 CD E5 D1 6B 54 97 85 82 21 A1 1E 92
 3E AD 69 49 49 AB 43 9B 09 FF 3C 90 66 9B 14 2E
 1B BE A1 40 C4 75 29 5E B5 24 F1 1F 43 F8 94 20
 13 01 2C 2D E8 8F 8B A0 88 3C BA DD 1A 81 F3 C6
 A5 A8 4A E0 4A 42 49 59 B6 E2 AE B1 FD 31 D2 06
 04 D5 49 70 75 06 B7 82 96 14 2A C0 8A 86 E8 10
 20 67 AA CC 6C B3 D1 98 9F 5C 86 4B 63 83 60 4F
 45 02 77 9A 42 61 28 50 0D 78 04 0B 30 8E 6D 1F
 F7 BC 1B 14 19 C4 C9 34 ED 84 1F F2 6A 3C 11 A8
 96 F6 B0 9F F8 92 8E 9F 72 D6 E7 9D D4 4B 57 38
 C4 5D 0D 8D 2A 15 70 98 F4 B2 43 29 B2 E2 14 24
 9C C3 BF FA 7E 3D 21 01 C3 47 33 AF E8 DB 94 AA
 92 09 00 CB 61 32 5E 7E AA 16 AC FD 12 64 93 3E
 FC 50 41 7A 87 09 31 C9 A1 A6 66 3C 1E FC EB 03
 C4 C8 94 E6 67 D3 AE 0D 41 FB 5B 52 F3 14 A6 42
 6F 8D D9 00 13 B4 00 FD A8 10 6B C3 71 70 92 96
 30 38 F2 78 50 A6 DD 0C 35 18 A8 83 C6 6D 10 C1
 AD 5C 69 AA 5B 6D 38 5C 33 E2 1D 6D 20 46 94 EF
 60 67 63 81 A1 11 84 5E FB 4B EC 10 CF 22 3E C2
 C4 59 6F D8 B4 A2 DC 51 21 47 D6 F0 AA D7 40 4A
 E2 66 7B 14 FE 29 E8 47 52 A8 87 EF 9D E1 91 86
 EA 63 35 BB CD 2B DB BA 3D 55 D3 15 23 38 FA 87
 E3 B7 19 81 A4 5F 80 C7 93 ED FE 69 9D F8 FA 34
 E0 D0 80 4B BE 92 F5 F3 CA B7 3E 51 EF CA 40 73
 36 19 8C 4B 00 1C C0 1F 7D 9E 8A 0B F9 D5 E1 38
 51 AC 7E 5E 40 17 B8 BB B8 82 A9 9F 66 50 F0 DC
 2C A4 B6 31 16 17 08 E9 29 DF FE 4C 0C 4A E5 91
 4E BE 4E 75 80 1F A2 57 83 00 34 86 E1 72 57 97
 57 3F 5C CD A4 A9 1B 58 55 89 4F 8F 20 C4 DF E0
 CD 05 B5 55 5D 1B 33 0F 5D 8E BB 0D 2F 17 92 B3
 C1 B5 14 73 CE B2 C9 67 7C FF 08 62 FB 20 D2 87
 49 76 74 6C 6A 52 72 D8 81 19 03 F0 BC 29 AC 3C
 EB E4 98 BF F3 2D 6E 65 79 08 CA 50 3E 69 46 F9
 2F B6 47 A4 12 A3 AA 7E 0D 43 32 16 CB E9 64 C9
 81 0F 41 E6 55 33 33 6B E1 30 43 64 5D BE C5 30
 B6 F9 95 96 DE C6 7A 69 5A 24 0E 0A D3 C4 DF 56
 2B 65 7A BB F7 F4 A8 60 DF 74 EE B8 14 85 42 D0
 4D 61 B4 ED B1 D0 7B 01 18 20 D9 17 0B 1C C4 A6
 4C 83 D4 1A 59 6C AD F1 23 8E BC 5F 12 DA E4 84
 2D 7F F0 7D 43 D5 96 18 A4 95 25 F8 63 76 76 8C
 E5 2A 95 D4 7D 0D A4 5F 69 E3 E0 58 F5 EA 6F 8B
 13 AB F4 95 64 6F 29 FF EE C5 A3 C9 A8 86 27 54
 20 D8 39 49 86 B1 96 6A C8 83 60 17 D3 02 EC FD
 E0 AD 67 84 67 A4 A8 CA 42 97 88 C3 52 58 81 07
 5D 0F 5C A3 D4 97 3E B2 3C 6C 0B E3 65 04 FC E6
 F2 9F BF 52 80 35 92 52 B6 B8 0C 56 35 AF 81 7F
 29 CE ED A9 A3 00 4F 2C 40 03 E0 2E 4A 57 9E 68
 49 4D 02 28 50 10 11 DC 42 69 8E 01 88 B0 62 BA
 22 0F 00 9D 79 51 4D 1D 49 95 C1 49 AD 6E 2F 63
 D6 81 D1 0C 03 28 9D CF C9 12 6F 29 68 06 79 E4
 5B 3E D3 66 AB 0E 53 8A 3B BC 21 6A B8 75 4B C9
 62 B4 0E 11 80 3E B3 CD 3E 81 77 26 77 7B F2 E7
 90 C6 7E BE C2 CF 4E 36 1C 28 16 F3 DA D2 01 27
 C4 71 EE 53 2C EA 3F 45 E4 BA B4 BB 12 A6 FE 1C
 C2 D0 CF 07 68 5A 31 EE 27 F0 18 2A 20 C6 67 29
 89 13 CD 1A 2C A4 A7 9C 28 57 7B 13 F1 84 00 32
 67 01 A0 AB 10 72 51 85 D1 A3 DF D2 A2 07 3B C3
 C4 14 D9 A4 C0 43 BF 8E EC 5A D4 3E F3 93 15 82
 A6 24 6D 32 9D 64 D6 41 90 A7 8D C9 AF 0A 5C B9
 C9 F0 7A CE 44 04 34 AF 9D 77 65 A7 63 8A F3 EC
 D2 E6 CD 07 1B 88 E1 35 6A ED 8D D7 0E 02 21 D9
 94 FE 29 D6 72 71 CF C4 52 42 EE 9E 7D 3B FB 7B
 F8 70 0C D8 32 AE F4 2F 37 92 45 14 F9 58 19 45
 96 50 16 70 BB 1E 0B A0 79 23 A8 0F C8 90 D7 F0
 A9 DB 91 79 3D 9B DD FD D5 8E D4 9B AC FA 99 59
 A7 73 FC F9 1F 29 07 9B 76 4F 1C EA AF 6C 2A FD
 31 C8 F5 D4 FB C8 3D A3 32 3D 4C 14 7C 6D 8D D4
 93 19 CF 35 6D 0B 5C F2 27 8E DF D6 1A 02 BE A7
 77 C0 9D 51 AF 39 26 9B E4 54 B7 0B 9C 7E 39 6D
 3F 70 8A 75 09 7C E4 80 43 01 EB 1C 94 41 E7 A5
 BB 75 93 E5 15 D5 6B 5A 15 2D F1 45 74 CC FF 65
 5F AD 34 E0 DF 40 03 01 35 58 EA 61 6E E7 DF 81
 7D D9 FA 38 70 B3 99 39 22 5D E5 84 58 86 3C 72
 4F 45 EC 0A C4 D0 80 31 06 23 6D 64 5C 0F E9 47
 DD 75 EF 90 2B 60 C7 A7 03 2C 26 EB F8 5A E6 B2
 2F 8F E1 AF D9 C4 0A A6 2C 84 BE 98 8D 7E 70 78
 23 18 FB 61 7D 15 7B B4 9A 21 F1 93 B4 1A 62 EB
 A2 81 75 74 F0 99 8A F1 0A C6 21 21 7B CD AC 40
 A0 C1 8F 3C 7E 4F 54 FB 2D 0C A9 CD 48 DE 79 38
 62 2E 77 70 91 63 07 45 85 DF 40 58 88 24 33 15
 62 07 E8 7E A3 C0 2A 22 96 C8 E3 50 40 F3 A2 26
 FA B9 83 49 11 60 94 CF 21 14 56 BD 76 6F CB 9E
 7C F3 55 87 63 55 74 BD B2 03 BF 6B B4 BE 7F 09
 26 E6 AB 06 28 AB 87 AC A9 3F AD 82 19 BD 01 16
 B3 C4 9E A9 A6 2A 26 43 A9 98 E7 C9 BE 40 EF 6E
 9F 6A 46 45 85 E2 4B E8 B8 4E D4 C5 D5 D4 50 CC
 CB 7F 22 FF 92 CB AB 1F 03 9C 84 7F 1C 31 30 58
 DE 60 ED B0 73 4E A7 1B 81 FD CE 8A DA 39 68 94
 9D 02 19 AB D7 1D 56 9E 39 98 CD 21 E0 17 30 39
 07 DF A1 6B 9C 12 03 7E E8 99 68 AF 9B A5 7C 7D
 A7 9D 2E B6 BB 5E 31 57 B6 CF 95 CD D9 F1 7A 1D
 E6 D8 B2 F4 48 3A FD 28 0A 9C B9 F4 63 E5 CC DF
 5F DC 58 23 59 73 8A DA 40 BE 4E F9 A4 BC B5 24
 F7 E1 AA 47 45 63 D2 81 46 DB F2 1C 50 94 98 7A
 D3 2B A0 A9 76 FF 3F 82 2C 2E 0D E7 05 96 04 93
 E7 AC 97 96 2E 39 FD 90 94 70 EB 55 3E C0 87 F1
 A6 61 9B A0 28 D9 D1 1F 54 58 7C 71 4B B4 BE 87
 CF E3 A9 08 D3 90 D6 5A 0F 90 14 F4 34 5C A5 BA
 B0 44 3F D4 27 05 FE 36 36 58 05 C7 0B 6A 04 F6
 9E 07 79 21 95 DD 75 F2 30 03 7A 23 0C 5E 8D E0
 4B B3 BA 15 D1 60 57 5F 6C C8 29 06 0B 8A 64 0F
 49 65 6A 21 6E D8 19 60 40 1E 43 6D 86 EE 5D 87
 6F DA E4 82 EB 62 DD 43 62 ED 80 1E 98 1D EA F3
 F2 E5 62 05 60 E8 52 5E 84 6E D2 79 81 12 8D 16
 82 E0 D6 FA B9 82 32 78 84 C9 16 78 5F AD 38 41
 90 66 27 30 2E B2 83 E3 9A BA 23 E1 CA 3B 86 AF
 AF AC 90 A5 B5 C6 77 54 F3 E7 90 E1 E8 ED 9F 7B
 AB 05 FE 10 5A 35 41 D0 B3 96 5B D4 B5 E7 5A A7
 49 64 61 A0 F8 1E EA B3 1F A9 0A 25 AC 03 24 68
 FE 0B E6 52 1A 6D D1 81 09 45 09 DE 48 C0 54 8C
 85 E2 1C 15 1A 7B 6E 4D 2D 50 9A 13 AC AF 95 45
 A9 05 E6 C4 89 4C 73 EE A6 6B A9 69 C6 A8 55 32
 35 E4 48 EF 7A CE F8 7C 17 B9 0A C4 82 CC B0 1B
 07 30 16 89 97 20 37 0E F3 C4 0B 2B E8 C4 88 18
 1B 75 FA 98 73 6B 8A 6B C6 27 0A 20 13 A3 EF 3D
 DD 53 D6 C0 74 9A 6D E7 4C 56 D4 90 31 08 DE 06
 E1 03 6E C7 33 29 8D 48 96 AF DD D2 72 BE 3A F6
 F4 5B 70 AC 4F C2 4E C0 5A 29 8E E0 02 CC B1 C0
 6A 81 C9 5A FD F7 16 59 B3 82 4E A6 69 36 18 28
 3E 79 D1 2C 57 E2 D4 B8 D7 1C C5 32 4C E6 E7 BF
 69 3D ED 08 82 86 4A F4 17 75 B1 C1 7B 47 4C 10
 05 AF B4 5C 9C E1 B1 7D 86 1F D8 3F 6E 10 53 AC
 03 21 DF 91 42 43 CF 93 16 6F 75 15 35 88 A8 87
 67 53 6F 35 1B 96 66 DC CD 83 19 B4 5F BC 76 62
 6E FC B2 38 E1 F2 12 EC 16 3C B4 D2 5E 6B DD FD
 DB A1 58 91 BD 14 0E E9 90 D6 E6 66 70 57 D1 20
 15 03 E7 F1 B7 9C 85 FD A7 70 F7 CC E7 C8 90 63
 01 D1 EA EA 47 80 FA 9C 83 9D F2 71 10 73 E6 5D
 55 6D A2 3F 5E 57 03 7B F4 8A BC AE F8 64 4E 25
 49 15 B2 64 E8 B7 96 91 19 1D B1 3C DC 89 1E E3
 C0 B4 AE 27 96 E4 61 CF 25 27 B0 1A 22 AA 66 0E
 4C AB 22 C0 27 CA 3C 5A A9 68 88 59 78 FD 70 CB
 87 F8 AB 51 FA 72 0C B7 B6 7F BF A5 A3 FF 87 92
 FA 3A 64 16 D5 39 DF 78 C4 AB 35 F2 FE D0 85 F6
 DA 5F 40 FF 49 28 BB 87 65 E3 93 C0 F0 E5 4E E6
 9A 35 9E CE CB 3F 7E 93 0B A1 26 F6 92 F4 45 87
 C3 BF 0E 03 20 B0 9A 8F CF E7 AE 80 2C 26 E4 47
 B8 5C 56 3B BF DD 49 BE 7F DC AA 9C 3C E8 32 A0
 6A DB 7D 5F 7F 70 9A 5C B0 25 56 0B BE 97 67 59
 D9 FC EF 61 CE F2 24 C9 64 D9 22 D2 AE F2 DA EC
 23 31 83 E4 6E D5 26 AD DE 56 E1 BB 8D 65 CB 56
 9B 69 FB 41 19 74 9D DC 86 C4 40 38 BB 8C C8 61
 18 4E 40 3F EE 31 30 FE 2A F3 57 F9 03 26 F0 35
 75 47 67 77 6D F4 16 D6 6D 84 6C 8A 2E EB D1 1D
 60 1A 48 6C 5C 1A 2A 26 16 8C 8F 12 AC 81 5D 9F
 DF 6D 20 43 28 A5 B8 A4 AE D3 5C 83 62 F0 D3 73
 00 B0 A4 BC 19 F2 58 09 5D 8C 16 9F E8 10 B1 3E
 67 55 59 99 78 CC 5B CD FD EE 5F 10 CE 20 B7 D8
* End 1224892687 3263936148