* LTspice Encrypted File
* 
* This encrypted file has been supplied by a 3rd
* party vendor that does not wish to publicize
* the technology used to implement this library.
* 
* Permission is granted to use this file for
* simulations but not to reverse engineer its
* contents.
* 
* Begin:
 C5 B6 CB 72 29 BC B6 48 70 19 4C 2F 43 3B 21 D9
 F9 F2 F5 71 4E 5D 41 10 B0 0A AC A7 1B F2 D5 35
 F1 EF CB E2 27 88 14 08 19 00 0E 9E 9E 84 89 76
 14 F2 44 6F BE 3E 22 56 B6 86 FC D6 6D F9 56 5B
 5A 5D B1 ED 5F AE C9 74 9F 1A 4D D8 2F 4B 85 7F
 0E 58 62 18 28 D1 29 74 59 B2 08 79 A6 A7 48 74
 E2 39 5A FB 9F 94 EF 06 AB 3B 37 02 13 A5 C5 B3
 FA 6A BB A5 CA 93 95 E7 1C 1B 3E 53 CF 7F A3 77
 14 18 55 DA F1 CC D9 61 9A DB A7 FD FA F4 F5 D9
 7C FF 65 B7 03 C8 5A 4F 0F B2 96 0C 1D FE 56 EB
 1F 7E D4 DD 63 8E 63 C8 16 17 BC 12 BE 97 4B 10
 92 5D 04 86 FF 35 C5 A1 45 BB 8A 1B 5B 35 56 F4
 D1 CC 1C C2 81 3A BF 50 8C BC F9 4D 08 12 8F FC
 4F B1 C5 4F BE 1F 9B 26 6C DA E3 93 57 19 C8 95
 47 50 32 6C 4E D1 E5 BE 40 7C E3 43 5E 01 46 29
 86 E6 C3 05 ED 16 80 F7 6F 78 82 32 38 5E 81 06
 A9 E1 5B 86 FA 6D 8B C8 FB 30 FF 69 75 28 2E A7
 1C AE 5C 74 3E 07 26 81 69 5B 80 4A CA 04 C5 50
 7A 92 F1 2E 39 35 7F DE 6C AE C7 0E B9 57 B7 21
 B5 75 AB 1B 14 5B 81 96 C4 63 6D B4 BA F0 0D FC
 CA 4E 05 AE B9 D9 7F D0 05 01 29 97 87 44 0F E0
 A1 2F 21 F4 98 56 AF DA AF F1 50 E7 A4 4A 17 9B
 86 E8 07 F5 F3 DD 32 A6 D9 7F 3A 2F 3E 95 27 6D
 98 4F 53 E0 DD 8C B4 2C 9F 36 06 C4 DA FC 86 6D
 B0 39 B2 58 7C 00 1C 1E 4A 5E 16 9D 74 72 7D 38
 91 40 A5 60 70 0C 15 93 9E 04 BA C3 06 B1 3D 11
 2A D9 CB BC 3A 83 BF 1B 2D 8A 69 7C 07 C3 76 B4
 90 43 9D 3B 82 4B 12 E7 FA 3E 41 3C 49 2D 54 70
 0E 72 53 7F EC E0 C6 EA 32 F0 D9 A6 67 38 65 93
 1D 79 2E 02 96 E1 30 C8 32 2D 69 11 44 4F 5A 29
 23 83 B8 87 10 F0 8C AF 97 9A FC 0F 49 F0 86 E7
 0D F1 EA D8 CF E9 20 1F EF 3F 03 72 17 77 A4 2C
 F3 AD ED 1D A1 73 D6 4B A3 92 6A A5 24 8A 35 07
 64 A4 44 D6 31 E4 F5 BE 9B D4 27 88 E9 DC 3E EE
 B7 2D 21 58 A0 27 1F 69 9A 59 FA BC C9 DB A5 96
 CA CA E5 DE F9 78 E6 0E C1 A2 03 85 31 AB 01 40
 2B 1E 30 88 2B 91 B3 F6 CD A1 FE 8F 93 B3 83 D4
 92 6F 68 5E DD 12 D3 A6 B4 1E C9 F5 30 98 CE 38
 47 4B 67 BF DE 71 64 22 9E 15 C5 18 E2 AC 28 24
 A8 17 4D B8 B2 FF AD F1 9C E8 8A EC DA FF 4A 06
 F2 17 BD 49 CD DC FD 7B AA 3C 39 B1 D6 60 1E BE
 13 0A 6F 67 CA 3F 62 5A 51 EB 01 74 69 A3 B7 32
 45 07 A4 B0 31 32 0A F1 4E 68 04 BD 12 CF 66 62
 CC 5E 64 63 35 14 92 3F 7F 7A 7C D9 CE 05 BA DA
 67 8C D0 83 E9 7F 4D 5B 73 68 A8 D9 DF 03 D3 74
 12 39 CC 2D 0E E4 16 CA 48 DE 5A BB 3C CD 56 2C
 EF CC 32 2D 6B 88 57 FD B4 3C 12 EE 48 45 53 01
 62 14 60 0E 36 20 55 61 FB A4 F4 13 5B 1E D2 2F
 FD 6F CC DB 1C C2 83 93 8A F1 A3 1C D9 B1 60 C7
 4E 26 41 E5 A6 A9 EB A0 78 FB AA F5 E5 E6 DB 5F
 F9 36 D7 DB 57 EE A5 2B F7 9C 02 DC 9F 9A D6 6E
 DE 88 37 97 F8 93 03 A1 89 BE 59 8E 13 AD 4C 48
 0B 03 BB 43 BA 4B 5E F2 38 84 E5 8B 62 62 AF 9E
 8A 69 B1 53 15 9D 05 DB B7 76 59 81 BA DF 17 BF
 8E 0C D4 13 17 4F 32 8E 8A B5 C5 01 23 D1 3D 87
 AE 6C 15 F9 75 49 B2 3E 74 16 55 AA A8 0B 1E 16
 85 8C 07 C4 2F 76 42 ED F3 0A B3 9B AB D9 6D AA
 75 FA 65 57 5A 78 F0 38 0F 89 D1 88 E4 CB 20 D4
 B2 8F C8 B6 69 E1 8E CA 4B 11 AD AA D9 AE 96 04
 E6 C8 7D 52 9E 86 5B 15 2D D7 B2 73 2A 10 FB 0C
 6A B7 9A 35 15 A3 9E CC B2 DA 6C 53 42 15 71 88
 1A A5 B5 1B F5 6F AB BE 76 EB 32 40 8D 1C EE 6B
 EA B9 35 6F A7 3B 1C 90 87 02 6C 62 7E 4E 1B 3B
 23 C7 8D 61 34 B4 5A 20 7C 9E E7 0A C8 E1 2C FA
 69 94 B5 5B F0 7B 5D 95 3F 59 98 4B 43 3B E7 E6
 67 55 5E CB 1B 5B 48 B7 A5 1D 11 AA A9 D5 94 15
 E6 96 B1 17 C8 32 0C 6E 9E 14 83 86 F7 46 27 4E
 9F 0F 43 92 74 C7 41 D3 4A E1 69 FB 71 45 A3 99
 4C 4B 98 A4 AF 57 B2 97 AB 47 AE DE 66 55 26 D0
 9C 11 77 A5 5A 99 09 82 AE 8E DB 63 D0 AC D2 43
 4D 33 B0 C8 94 A8 E4 0B 6B FE 14 14 5A C0 EA 60
 88 C6 8A DC 1B EC 7B 96 15 76 53 65 E7 61 99 CB
 CD 75 83 76 42 7A 1C 07 9C 7B 4C E6 FF 20 A5 34
 D9 B5 A5 61 AA B4 17 AD 39 4D 8C 8B 12 EE 0F 3C
 5B 3A FE 05 4F 14 15 F5 77 7B 2C EE FB 0C E5 DF
 93 87 B8 22 37 66 30 79 EB B1 9D B2 AF 78 C8 8C
 02 F2 C0 12 68 23 3B AA A9 55 4E 0C E7 7E 8E AD
 5B 7D 43 0B 15 BC AC 27 B4 C5 A0 7E CF E9 E4 1D
 C6 85 F7 56 96 28 4B DF FB B1 17 92 77 0B 73 B4
 86 29 1C F4 22 33 D3 BB 3B 17 27 49 94 E2 6E 82
 AE FA 7A 8C DE F6 88 CC 66 0A 48 58 16 B4 50 B0
 AD 72 42 13 F1 32 8B EB 0F 0F A3 70 DF 7D 68 1F
 D1 74 2F 63 06 8E 5E 40 5B D4 DF 12 29 C0 B5 2C
 D6 4E 2E DD 8E 0B C3 23 EE 01 6C AF C2 0D 34 AE
 BB 09 74 72 B6 67 46 FD 45 D1 7F 20 17 FE 76 CD
 D1 4F 55 FB 73 98 86 89 F0 1F 3F 10 90 21 F3 5A
 C9 9B 1F A5 AE 60 02 E1 71 45 CC C4 C7 29 00 55
 DE D6 7B 6A 82 76 B2 11 9D 23 C5 79 3E 42 75 27
 E6 10 06 99 6C 1A DA 84 B2 E3 B0 DF C5 DE 2E C6
 12 46 A0 FD 6D A1 76 C3 1D D1 83 68 B4 3D AD DD
 6F C7 77 3A 96 3A 83 ED 2C 78 E9 C8 99 E0 BD F4
 26 CA 1E B7 F6 AD CA 0A 23 37 A7 18 DB 8D B2 D1
 8D 31 63 2A 87 08 CC FA 60 34 87 08 96 F8 18 32
 95 E9 AB CB 5A A7 0D B5 43 82 42 91 AE 57 86 A9
 AA B6 1D F7 1A 25 76 B7 22 BD D9 93 69 26 A3 21
 CD 03 93 A2 31 57 F7 1F F0 73 4D 0D 78 21 86 39
 C9 AC AE 8B 5A 55 C8 89 59 0F 58 08 C0 97 E7 92
 91 AC 62 D5 BD 3B 7E 53 D1 1F F8 D2 26 CC BE 90
 E2 CB E7 A7 2A 53 28 BB 10 89 17 5D 99 80 21 E0
 46 1C 29 2E 8E 27 E3 BD 01 FF 44 28 35 B7 E1 E2
 88 81 C2 02 C3 06 45 CF 64 87 33 2E AA 5B F7 86
 66 F0 88 AF AB 8D EF 63 30 4C 1A F3 C3 AF 45 69
 32 DB 60 C3 89 61 C0 38 09 42 4F 77 EB 31 40 B1
 74 91 74 F1 26 04 BB 74 3E D1 3B 65 65 51 8A A6
 61 96 A6 EC 4E 2A 26 9F 0B 8B E7 F7 B6 49 38 3C
 5D 55 9B B7 C7 82 BC 0F 9C 6A 71 3E D8 B7 F6 E7
 CF 0D EC 17 30 05 DD 2E 31 6B 1E 6E 96 93 EC D7
 71 C3 95 05 AD D9 04 28 B9 C3 1D 18 B9 BE 4A 82
 FD D6 FC F8 17 69 2B 0C CB 97 44 43 98 64 C2 7A
 81 CD 9A 05 DF 78 5E 49 45 D0 96 26 5B B5 89 B0
 02 CC A6 C0 CB D1 58 7E F9 6A EB 59 39 F2 03 98
 CA 6D 71 59 78 E0 4D 24 15 AD 0A 69 73 7E 4F 4D
 5A 00 95 7A F8 CF D6 56 FF BD 70 30 C8 D4 70 50
 39 07 A0 FB 1D 35 C6 33 0B 26 BD 49 55 90 03 BE
 AB 8E B6 20 22 D2 83 13 06 5C 90 54 FE 76 BD 67
 FC 56 35 C7 7D C3 9D 5D 72 3A 70 99 34 17 F7 4F
 73 11 BC E7 FD 21 D1 F0 3C 6C 77 98 30 3B E8 3F
 D9 75 5C 63 AB B9 F5 3C C9 87 5B 75 EC 7E A5 6C
 5A 53 1E EA 3D 52 64 67 99 E8 66 12 B5 BB 54 D9
 2C DB 8E 34 D8 F3 84 B0 08 B7 16 60 77 C7 B3 BC
 AA 74 57 7D 9D 62 93 4F 08 25 9F BE AD 7F 8C 39
 56 8B 60 76 78 40 63 8A 07 50 D8 E6 81 A7 E3 F6
 5E 02 BB CF 3D 13 7C 8D 4D 83 54 6F 7B 75 91 06
 1A 16 EB 5E 6F 83 19 AF 5D 5C 5A A4 0B C6 0E CB
 DF C0 35 83 37 17 C5 CD 79 BB 41 A3 C9 C5 C6 B4
 97 9A 94 D8 11 64 03 25 F1 E0 D4 DF FD A9 5A 78
 A0 F3 BD 34 AB 56 24 96 58 0B B6 84 D9 FC CB 92
 0E EA 17 43 EF 00 7A 56 39 C7 1A 10 34 13 F2 4B
 6C E7 33 D1 CD 1B BC F4 3E DA D6 A5 D8 EE F9 B5
 19 21 25 A3 4B 3A BC 4E E6 C9 7A 57 CC 7A 93 82
 59 CA 4B 46 77 A8 B4 4F EA 85 0A 3B 95 59 B5 1F
 0A 3B 33 C4 78 E7 55 8E 9D 03 84 55 C7 FB E0 53
 3E EC F4 7A 31 1E 75 81 73 6C 94 F3 5A 04 D4 1F
 D6 DF CF A7 EE 7C FE C2 95 5B 87 B4 E4 67 FB DF
 7C 34 22 08 CC 20 2F 93 3D A3 F9 A2 68 74 58 F6
 20 B0 C0 25 91 F8 CA 6B 37 55 CB 74 16 20 4A AF
 07 9E 24 CD EF 17 40 44 B6 2F 29 5C EA DF 05 7B
 90 C5 FC FC 87 FF 06 11 48 45 95 51 1B 8C 1B 67
 9F FF B2 23 C7 05 8D 49 21 96 4A 46 DE CC D3 E8
 14 53 59 DF 39 B2 B1 74 A3 99 48 4B 4D A4 2C CA
 70 84 75 3F C6 3A 2B 3D 68 D4 9E D2 40 A1 E2 7E
 4C 40 53 7F 86 F7 F2 20 AD 66 77 53 A6 F0 84 49
 C0 B8 69 5C 1B 94 73 62 DF 98 4A 8E 6A 4A CF BE
 00 BC 5B 1F A9 65 2D E8 E0 96 AC E7 60 BE 16 77
 DD 04 9F 0B 90 41 CD 8E A7 68 71 F0 CA 6C 16 78
 57 EC AD B8 D5 D3 BE 11 1C AA 07 23 F8 A0 92 B5
 3F F9 AF 76 DE 00 F4 CE 7A 82 70 99 3B D2 AC 7B
 37 83 8D 23 D0 D3 3D D5 8C 7F 03 0E 32 29 07 0A
 3C 40 C7 5E E2 95 3F 3A E9 45 F8 7F 9E 7E 8C 79
 13 94 0A 3B E7 67 2D E9 9B 35 D3 E6 06 0D B9 65
 6C C5 A3 FB E6 D2 05 CF BB 36 D6 13 CA FC 20 2C
 21 CF 7A B6 61 72 CB 17 9B 51 4D C4 F2 DA D1 84
 A9 83 F3 83 1F 72 77 8C F7 5D 02 58 C6 DE 7B 24
 08 96 BA EE 32 A8 DD 47 62 A5 21 18 9C 1E B3 BE
 23 F2 5A D3 32 10 C1 69 81 30 0F 6F F7 A9 A3 EE
 38 5A 5E D6 72 C2 36 7E 8A E5 9D F7 B6 08 9C 4A
 03 15 E2 2E 79 80 ED 85 1B 07 65 48 AF 34 6F 32
 11 6A 1E E8 93 5D 8B 21 CD 4A A3 E1 97 D3 C7 47
 EE F0 50 FC 6C C6 EA E9 55 5D 6F 3E 0C 34 99 35
 58 7D CE 47 4E 12 09 83 D3 B1 10 3B 69 A8 6A 75
 03 9D AA E7 32 A1 FF 54 DD ED 61 03 D7 6D 79 F7
 C8 AC A2 83 9E B5 7D A6 DD 24 93 0B 90 9C 67 E7
 C0 38 28 2A B2 64 6A E1 20 1E 91 9D 56 2A F9 29
 F2 25 5A 20 77 26 0C 6F 23 E1 52 3C AA BE 9F B4
 BC 4A 0A 67 DB 5B C1 18 93 AC BB 69 E2 44 25 2F
 65 58 44 B1 A1 A5 69 C1 55 D5 3C 98 56 29 0E 2A
 D1 F5 26 82 D4 7F EA D6 DC 2B 2B 8E 9B C6 2D 6C
 E5 AC D8 54 C3 DF A3 47 B2 19 5F C3 80 A8 F1 7C
 03 EF B5 D9 97 BE 1D B9 EA B5 23 86 08 4D 0B D3
 6E C1 1C 53 11 A4 0E 1D E3 3E A5 A9 88 72 63 86
 7C CC AA 30 A6 05 83 9B 97 FB 7E 8A 6A 6E 41 1C
 9E 5B 95 6D 54 04 1D E4 4C 1C F6 3B 8C 56 AA 26
 4B B1 01 A2 CB C0 7B CB A6 37 E7 AE D1 FE 19 C2
 D7 1B 59 65 32 8A B0 57 53 15 87 6B 19 55 56 71
 D2 00 07 8F 96 6D A2 A4 C4 10 53 88 BF 5B A9 AE
 AB BB 57 12 52 95 94 B8 5F 1A B2 DD 66 D9 EC 96
 9E 98 9D B3 E5 B4 C0 BA EB CB DD DF 58 48 86 DF
 3B D6 46 ED C0 B8 86 16 62 A8 A8 F9 3A 7A 8D 83
 DA A1 B0 3D 56 96 4B 08 D5 69 FD FF 72 A5 57 37
 43 8D 0B FB 75 21 A2 C5 15 96 A0 E0 07 D4 C9 55
 8B D8 D5 E7 19 73 A5 52 40 58 FE 8E A4 31 34 51
 4D AD EF 1E D2 6C B6 DB 3F C2 92 CE 57 8B EE EB
 7D 2E 23 6B 46 F8 AF 01 A6 0E D0 A0 53 46 BC 1B
 0E 1F 89 42 70 BB F0 BC 72 2C 62 63 1A E8 84 BF
 54 2B 96 64 1A F1 2C C0 C1 5B 3C 16 A9 A3 6D E7
 90 54 C6 61 C0 D3 6B 1D 4A DC 6E B0 09 A9 D4 D3
 B1 7B 17 59 53 A4 B0 27 CE 6A F6 F1 84 EE B2 18
 04 9A F5 71 CF ED 97 5C 5A 90 A1 C0 FE 3C D9 41
 E3 84 94 09 6E FF 86 8A 94 4C C6 46 33 77 EB 21
 8D 67 CD 13 08 81 03 B6 BC 03 F1 43 51 AC 23 FE
 F5 3A D6 D1 8C 37 0A B6 7F EC 46 9C 83 E0 37 73
 98 5C 2A 2E 11 C9 4D 68 CF 61 01 52 D0 0A 44 D2
 61 2B 62 7E 74 6B 89 CF 35 F9 32 4E 15 50 6A AD
 3F 30 9B 98 99 C5 AE 91 67 57 0B 2B 2B 3F 6A C2
 34 29 09 FB 04 F8 77 87 E2 60 F4 1F E1 02 1D BD
 BC EB 51 8A 21 F6 9B 67 9A 33 31 12 95 9F 47 55
 F1 1F 43 00 D9 D5 1D 4B F7 B4 33 F1 C1 82 56 DE
 FE 88 6A 5F 66 9B D4 F5 58 C5 C2 23 B0 39 89 04
 9E 67 4B 8A 6B 70 34 A1 E7 A9 BC 1B 7D E5 4C 30
 BF A7 48 F5 66 3F FE 6C D6 9A 2E 76 95 DE 47 62
 71 2E D0 55 73 D1 10 F5 B9 93 98 8A 1C 96 65 0E
 6E C3 0C 25 BC 66 2D DF 97 DF 3A 4A 2C 14 7C BC
 F6 76 6B F4 D4 1C 59 2C 5A D7 55 F2 46 9B 93 2E
 29 F9 1B A5 7B 94 A6 D6 F1 65 27 9A 42 02 D9 B9
 08 EF F1 84 AB 5B B0 F0 B5 87 6E 27 D6 92 6E 25
 A9 81 C6 29 E3 23 37 15 E4 40 F4 95 04 53 79 CA
 23 BD D0 96 8E 2F 48 5C D9 54 66 BE C0 BF 01 5D
 1D 46 33 68 63 87 48 F3 85 96 8F BC 39 37 22 90
 DE 16 D9 28 DB 82 9A 11 42 87 6B 53 4D 86 C9 25
 E8 8C 64 DA 42 9F FF DF D8 C5 3F 0F 52 53 24 DF
 F2 EB 38 11 6F D3 80 17 79 24 FB 14 2F 39 A6 D5
 2C E2 07 03 1F FF 31 6C E1 77 AE 54 1B D0 88 F9
 61 5F 87 28 4C 42 4E 7D 5E A6 26 4A 97 0E A7 F7
 1A 3C 49 DC B8 A1 0C EA 53 E8 C5 63 B9 FE 0B 17
 DA 1C 13 C0 F5 3B ED 19 6A D0 5F A8 7E 1A 45 2F
 E3 26 18 6D 0F 38 F3 E4 E2 17 54 32 9D 5D D5 11
 98 51 99 60 38 EF E8 A4 9F 11 95 FD BA A9 63 34
 76 C6 85 2E F5 4D 3F 60 14 CB DA DA 4B 4F B2 25
 2E B7 F9 A7 0A 24 DD 2E 44 AD D7 19 2D 6A 6F 1C
 A0 2E AE 87 D4 16 04 48 F0 54 DE 07 2F 1F 54 E6
 86 EE 83 12 69 7E 88 A9 29 15 27 59 AF 21 5C 16
 8A A2 56 7B 1E 80 B5 E5 C0 FF F2 6E 20 30 9F 50
 65 49 5F C7 B8 0C 94 EB 17 52 5A D6 26 DE BC B9
 7C 21 3E 6C 78 89 07 D2 7E 2F 5A 42 8C 85 60 15
 06 60 B0 B8 90 2B 9F 6C 60 E7 A2 D0 6B BA AE 56
 AE 7A 08 A8 57 72 9A E4 53 05 F9 58 50 6C 76 93
 C6 08 3F 02 0D B1 1E AE 1D 48 C1 AD 9D B4 72 7F
 A2 97 C1 85 AF 92 07 F6 EF 8C C0 AD 78 05 60 E7
 82 A9 14 FA 32 F6 F7 4C 09 1D BD AF FA 7D E3 BF
 00 E4 EA 3D E9 DD CF AD 17 E1 72 B6 7C 06 4F 51
 FF 01 14 B6 19 D9 F1 5C 41 B2 C1 8E 28 B1 C7 9E
 E9 AB 2B F3 89 F4 8D 17 72 A9 1A F0 4B B8 66 F3
 27 91 C3 FA 5A CF A2 6B 83 86 A1 55 55 4A B7 60
 04 94 2C 31 FA D7 0E 55 6D 08 BE 15 80 D2 23 AC
 1C DB F3 30 3E 8B 3B 30 A1 44 F3 62 11 95 1C E1
 E2 32 22 AF EA AF 51 E8 2C FE 95 E6 27 D4 53 0D
 D7 74 98 B2 90 19 3C 5B B7 47 15 8F 38 26 49 C8
 FA 86 94 D4 8C F9 E9 46 22 A1 A0 C9 CA 25 B8 11
 E5 97 7F 9A D1 94 89 BB CF FB A5 B5 3E 58 DE 90
 9B 1B 99 E3 5D FA CD B2 6F B2 CE 2C 38 E2 6B 71
 53 D2 E1 FA 6F 5F B2 AD B4 99 5E 8D 01 1A EB B9
 C2 21 69 BF DD A7 BF 26 08 AF 0A 85 9A 32 91 E4
 FA 10 EB 50 EE 3E E9 20 F4 A1 26 72 24 67 A1 73
 87 88 CC 1C 25 5A 68 E3 53 31 6A 72 7A D1 30 C7
 D4 B4 96 AB B4 A0 1E 4C 1D 8C DA 8C AF D0 D1 7F
 D5 C9 C3 0F 6B 74 3E 5E E4 18 EF 46 5A DE 3A 53
 C9 35 A6 89 1A A4 06 F4 81 E2 21 DC 37 A7 D8 B6
 08 7F 28 0D 04 08 52 83 AE 13 19 F7 CC A7 50 E9
 C6 6D B3 FA 2F 6D 0F E9 52 50 30 29 2B E0 B8 BC
 9A 79 51 85 73 C4 9C C7 63 CA 4C 1F D7 EF 0C 25
 90 39 21 0F 62 2E BF 75 2F BE 10 5D 5B D9 AE 65
 7B F5 5B 0F 50 F5 07 E3 54 18 13 77 4E C0 52 ED
 41 96 88 68 36 08 9F 28 C7 D0 56 27 7E 1B D6 8F
 CC BF 0D 05 C2 C8 1C 14 29 BA AA 47 45 83 AF 40
 CA FA 3F DC 49 B1 B0 62 5E ED 74 6B A1 38 A8 89
 B0 23 21 B6 7E BE B5 94 04 5A BB B1 00 DA FB CB
 96 45 2E DE DD 75 11 63 2B 38 66 1D 2D 47 1F 51
 EB 3D DD 37 53 40 10 F5 03 6D E2 9F 56 7D E8 22
 DF 85 30 F2 76 BA 35 08 D6 AC F4 A0 A8 76 AE 1A
 2C 91 4E 56 B9 26 93 39 14 83 E1 0F 46 6B 05 52
 61 3B 6F 94 F6 C3 97 12 E0 E3 65 33 37 58 CB 2C
 D4 6C 52 D0 53 B8 54 B8 0B D1 D8 3B 0F B0 E1 AE
 44 18 11 A8 02 EA 16 37 46 15 73 BC 7F 47 C2 61
 27 6E 72 5D 19 AA A3 66 52 C1 E5 4C 68 91 00 34
 F4 0D B8 4D 6A 76 37 B8 03 B3 83 94 38 35 E5 98
 D4 69 26 F1 81 2B DE B6 0B BF 98 8E E8 6B D4 3F
 BC A8 08 C9 50 99 15 8C 98 91 94 55 D8 F5 04 B6
 5A F9 3A FA 0D 7F AA 91 46 2F D7 FA B5 C7 EB FC
 FC 03 EB 1D 8D F1 11 62 BE 52 8D 60 B3 66 F1 3E
 67 F4 CC 5E 8F DB 73 96 D3 A4 85 5A 51 7F D5 DD
 89 1D A3 B1 C0 8E 4E 7D D0 B5 FC B1 02 7B 5A B9
 96 7C 15 47 97 1B 7B 75 48 0B A9 95 3E 58 9E 4B
 AE FB 2F 9E F6 69 00 D7 9B D3 73 EA 41 E2 9A 9A
 B9 26 3F A6 C1 B9 6A 05 D3 0F D6 55 1F 2A EA 49
 B0 FA ED E5 16 FC BB D9 2F F6 ED 89 23 68 42 3B
 E9 08 7C 82 D0 52 47 F6 CC 1E 13 36 18 13 44 87
 35 2E 60 EE E3 79 05 62 71 35 50 C9 2E 0C 48 FD
 CD 86 0A EF 62 60 E1 90 82 8C 44 D5 69 8F 75 08
 6F 64 03 57 D9 F4 D1 E4 F3 DA 41 CB 6C 7A 39 28
 B3 FD FF 45 9B E9 8F E0 FA D9 1B 0B 3F 92 6E 72
 FD BB 28 24 ED 18 CB 81 DC 6F EF 68 E2 B4 A2 0B
 89 06 E7 32 12 40 EC 6C 3F 9C D9 12 CF 28 89 77
 86 35 06 35 E9 4E D0 C8 FC 2D A0 FE CE D9 77 D0
 A1 DA 21 05 EB DB AD 0A 29 91 46 A0 05 56 D8 A0
 A5 DA 51 2A 89 E5 EC 0F 5D B3 96 A3 4F 6C 82 72
 3F E7 3D C3 88 77 52 78 7C E0 2D 36 85 35 A2 97
 1F 27 46 6C 36 52 0F E6 E8 46 B2 CB 37 44 5B 47
 CA EA 26 00 90 88 ED 59 4C CE A0 42 E0 F5 85 92
 C0 26 29 B2 C4 81 6D 9D 5E 4B EC AB 60 FD 9C 28
 39 2E 4B 1D EB 51 C7 98 42 1E 35 32 A9 5D 23 41
 EB 8B 5B 63 52 3B 8D 71 55 6B 85 BF 06 72 0B 92
 D4 E2 69 B0 83 BE A8 05 5E 31 F0 6F EC 27 1D AE
 B8 6D 3B 6F 07 B0 BF 16 7E D8 C1 29 E6 F6 16 21
 F2 E2 CC 1C 98 E4 DF BD A3 EF 37 D1 35 4D 74 C8
 ED 12 2D 66 B4 19 0D 5C C4 72 13 AF D4 E8 3B 48
 17 10 DA 87 32 7E 92 1E A2 5F C7 09 5A 51 15 A1
 9F EE 8A EF 56 52 96 8A AA C8 69 A6 D2 E5 A4 39
 D2 D4 41 64 B1 24 76 4A A8 FA F9 02 E3 CE D8 82
 93 BE 68 6E D9 0C EF F6 6D C3 36 31 0E BF 7B BC
 13 BF EF 8C D9 EC F7 CE 1D 0F EF 3A 9C A5 AC BF
 F7 3C 3F DD BF AB 8A 1E A2 A6 89 52 0B D7 D8 20
 CA 79 38 78 59 AD 59 5A 7E 20 F0 83 52 A0 8A DB
 EE BB AF 25 32 D1 2F 49 F0 9E D7 41 2B E9 8A 7F
 97 5D A1 0D 4C AF BA 3E 29 2A F2 85 E7 7C B1 D4
 76 64 75 FE 67 D3 20 A9 CA 65 A4 16 34 DE A2 A2
 3F 42 07 46 7D 08 4A FA 07 A6 47 71 7F 77 3E 92
 B0 EE 5D BA C3 5C B6 13 56 2C 03 E3 A7 B9 A6 2D
 05 A5 A9 4D 96 1D 5F 72 03 0B 3B A0 89 71 66 5B
 34 F0 2D 24 94 C2 66 34 61 43 EA A6 52 FB 4F 35
 B8 84 D7 B8 55 BF 22 55 17 DF 33 CD 56 72 AF 6D
 82 4E 5D A7 D0 57 3B ED 08 38 9C E4 FA FC 7D 89
 AB 85 0C 01 94 4E 33 ED C2 60 71 1F 01 31 8F AF
 8B B0 73 EE CB 94 A6 F9 23 93 64 D4 E6 87 C0 8E
 67 84 EC 75 DB 76 93 27 D1 FC 07 F8 8A F3 94 04
 D8 0A 14 27 27 27 82 9C EB 2D 55 F7 B8 2F 70 DE
 3D 66 31 78 57 50 5E 51 53 5E BF 1F F2 55 5A 33
 B4 7E DF 2C 76 B7 90 4D C1 C3 47 20 25 A1 72 D6
 EF 1C 04 C2 06 C0 7E 20 63 B4 5A AF 86 0D 88 A0
 45 72 2A AE A4 6B 0C C0 B5 1B 44 6C B7 37 C9 CF
 6F 9B 71 9C F5 DE F6 41 DA 90 15 D6 46 3F 0B 8D
 E6 BA 38 88 83 9D 8D 50 78 F1 8D AE 66 A2 27 AC
 20 86 62 0E C8 60 4E DC 6F CA C5 AB 28 84 EE 82
 09 5B 12 0A CE 7F FF B5 6D 2E 04 31 1C E3 72 08
 62 66 F7 FB 9A 4C 3B 59 07 64 E4 CB B0 AB D1 84
 E8 81 38 9F E8 37 3A AC BF 84 41 22 71 F5 70 0C
 DC 57 7C E3 A3 5D B5 80 E6 7B F0 E2 AF 11 B6 21
 B5 9C 3B 64 DE 40 2A FB 23 D6 C2 5E 7B 52 A9 A6
 72 8B 08 21 47 26 9A 76 FB FE A8 C2 7B B3 78 08
 E4 E0 E9 DD 5F 9B 6E 40 17 BB 34 A0 11 DA 66 D9
 42 86 5C DB 43 23 F3 CD 9D 62 15 0A FA CA 21 F9
 7F 76 0F 11 5A EE 01 E4 9C 09 B3 B6 23 81 96 0A
 E9 1F B7 15 CB 7D 18 E1 19 EE 94 A9 8F 78 8F 42
 08 28 FE 36 A0 41 85 23 E9 44 78 A4 37 B2 F7 4F
 F7 87 6E E6 6F C5 62 00 E1 5D 72 56 67 94 F7 A9
 87 34 6C A6 BE 37 0F 76 A5 B3 96 54 C4 B1 4B 0F
 BB BB 87 83 5E 92 D3 C8 0F 9D A0 D3 FF B9 54 8C
 62 60 CF F1 E6 04 55 FC C3 DB 33 F5 9D 50 5E 1B
 77 8D D3 00 ED 89 62 B7 2F 23 C1 F4 8E 71 BE 53
 21 66 AC E1 70 72 64 23 0D 6C 93 61 B8 D9 FA AD
 46 66 B0 6E C7 4A A1 5E E5 81 7A 55 F1 19 E6 1D
 39 CC EC B2 82 E2 05 14 E1 DA 25 DB 72 73 78 D4
 FB 64 CD 72 57 8C 44 20 B4 71 39 53 74 74 57 1F
 89 21 E2 B8 95 4C 0F F5 AB 9C 63 DF FB 82 50 DC
 A4 06 AF F0 B4 A1 7C 90 48 7B 58 38 5E D1 91 60
 F2 88 B6 25 6F 29 C1 77 D7 12 47 B8 4F 19 0D D1
 B6 F7 17 76 52 CE FE 3F 83 C8 A7 4A 3B 9F 2F 34
 39 E1 FA A8 27 C9 2A 88 15 5B F4 48 CD 6D EF 52
 9E A8 93 A9 7A A5 55 F1 D2 A8 F8 F5 06 2B A8 A5
 1C EC 36 8D 90 55 A0 4C 37 47 AB AB 17 28 A8 31
 3A 0A 52 E0 CC 23 96 D9 1D 0F BD DC 0B 7B B6 C5
 30 5E DB 54 F1 48 B6 84 65 05 39 39 8C 3E B9 C4
 4B 89 54 75 CA 19 E1 7B 9E DA 7F D5 45 D6 A4 19
 EF 52 B8 10 CD 4E BF 23 25 3A CD 25 45 04 9C C5
 4E EA E1 79 F8 19 FF DC 82 E4 75 03 A5 0F 83 91
 E9 22 FA EE 3F 56 DD FD EC AE F3 74 C2 A7 8D 50
 C1 06 49 F7 8D F0 36 41 86 82 E8 AE E4 A5 70 82
 AD 9D 0D E5 0B 09 F6 1D 4F 79 A8 C5 8B 50 7E 0E
 05 A5 7B DB 88 EE 7F 2D C8 86 CF AB 2E 54 CB 42
 A7 8D CB FB 89 3D 57 1B 24 6A FA BB 1E 39 20 F7
 93 33 5D 27 00 AF D8 5E 89 96 D6 8D D6 04 CD 0A
 99 3E 79 EA 46 DA 60 52 7E C3 23 DE 9D 31 74 08
 64 05 F2 B0 8D BD C1 CA CB D6 05 60 B4 DB 22 59
 41 BC 97 49 2A DC 65 59 E5 00 FF 1D FB BA 27 BF
 9A 7E A8 F6 30 8B C1 5A 75 82 F2 5D E9 4E 41 D3
 85 C9 01 8F A8 7D 64 CB 8C 13 2A E2 84 65 FB 2F
 0A 34 8A 55 BA E4 BF 0D 58 2E 6E 2F 71 97 35 1E
 F3 4B 21 6E 29 2F 4F 38 CD F7 5B 4E BB 7C 59 47
 AA 90 76 FE 93 8E F3 8E 92 FF 6E 5C 94 B0 51 42
 3A 10 0B 8E CB 9D FE 8B 79 71 1D 48 65 4F 31 BB
 4B B7 9A 19 C7 C5 E0 F2 18 AA AF A7 24 FE A0 29
 24 F6 23 D4 1F E9 9E 9B 12 7C D7 3E DA 48 6F BE
 24 7E 42 DE 18 A1 D3 C4 7C 63 F4 43 57 84 45 55
 BC 90 9D EC 90 3A EC AA 89 E3 63 37 C5 4E C3 4D
 1F F8 EA 1B 16 2F A0 62 2D 86 D4 1F 9B 3C 26 C9
 E1 A3 A0 75 65 CC A2 92 A0 3B 55 2C 35 46 B2 9A
 EC 09 89 85 0D 24 05 0D 7A A0 81 1A 7B 72 A4 49
 E0 C2 1E 2C 60 AF 1D 0C 59 4A 83 C2 4C 5A CB 45
 A7 9B 62 8C 6F EA 28 86 7F 87 EB 4F E2 29 60 A3
 34 EB BA 88 CC EF 9A 0D CE 35 D0 1B B4 35 81 46
 6F 71 9D E9 07 1E 6D 75 EB A8 4F 9E 1F A4 B6 B6
 36 6F 31 32 F3 5D D6 74 46 51 78 AC 07 E9 20 1C
 C4 6D 39 B2 5D 74 19 5B
* End 3082258905 240190583