* LTspice Encrypted File
* 
* This encrypted file has been supplied by a 3rd
* party vendor that does not wish to publicize
* the technology used to implement this library.
* 
* Permission is granted to use this file for
* simulations but not to reverse engineer its
* contents.
* 
* Begin:
 88 2E 3B 4A 04 43 1D FC B0 5C 4C 13 F7 D2 A5 DE
 20 02 29 A6 CE 8F 1B 53 12 4D E1 93 50 08 22 6C
 84 62 43 66 0C B8 B3 DE 16 A5 1D B7 BE 0D 01 7A
 E4 F3 FB FF 17 41 9E A4 CA 37 2F 65 6C 2F DF 90
 C3 20 06 F0 64 C9 EC 83 10 38 5B AA 76 0C 58 EB
 15 0F 70 4B A8 5F 50 45 76 18 30 91 F3 72 75 E2
 AC 5F D1 F7 E0 54 22 E9 62 ED 4E 3D 87 43 E5 56
 56 AA 36 3C 40 16 F3 96 48 FD A7 E0 2B B7 19 EB
 0F 8C 36 88 A1 CB 83 AD 3A AC 44 7E 51 23 87 44
 AA 29 87 6A A3 E1 82 1A E2 3B CF 5F 5A 1F A4 02
 C2 95 4D 9B 04 69 F3 A9 30 93 9B 45 2D F3 3F 99
 0A C8 95 8F 1B 0C D1 81 FE DB 3C 39 C7 1E 21 EB
 8E 9C 21 C0 E8 0E 85 16 93 DA 1B C5 0A 69 8E AB
 C2 DE F2 E5 39 8B 4D 8E D5 7E 7A 7A 0F 16 53 F4
 81 EA 98 6A ED 57 33 A1 48 1E 64 46 8C EC DA 56
 A1 D5 5E 79 7A 60 62 6F 15 93 D0 83 0C 0A 28 AF
 BD 3F 3F CC 8E 46 5D DC C8 DD 18 88 99 9C C0 1F
 53 93 D1 7D CE 03 9C D2 3F E6 20 64 C8 35 35 50
 BD 7E 46 A7 7F 72 38 0D 9E E7 0A A2 32 2A 80 4E
 38 E0 E5 2A 9E 53 82 EE F2 F0 5B 84 E6 A8 D8 56
 FC 60 58 26 74 C5 C5 B2 9F 17 38 BC 16 0C 17 8A
 41 C2 65 E1 EB A7 82 87 6C 33 E8 AE D9 F4 07 44
 28 25 94 F9 56 DF FA 7E F9 45 52 2E 45 24 49 C1
 7B 67 8E AD 8C A7 AA D2 4C 0F 2C 6E E6 1B 18 CF
 19 11 AD 8B 4A F0 54 D9 7C 38 5C ED 02 CD 0D 61
 8F C9 96 3D 76 18 C0 1C B1 34 07 1F 00 D2 D6 19
 B2 42 0B 88 EE DD F0 82 E0 AB 78 5F 98 1D 41 E6
 AE D8 C8 BF 0C 9A F9 40 0C E6 02 62 AA E2 B0 CE
 9E 4B A2 07 EB 17 0C 2B 03 93 A6 18 10 48 6C 28
 09 88 49 84 6A D3 D8 54 4D F3 A5 A1 53 55 A8 6B
 BF 44 D5 3C 74 13 C9 C3 6B 59 78 BA 5E C6 25 22
 C9 71 E3 9B A4 05 5D 59 C1 0D DF C2 91 CE 81 70
 9F C0 BE F7 87 40 07 39 F8 95 68 B3 5D 6A FA 92
 30 89 3F A8 6E 71 BC 97 A8 3B 38 26 C0 E4 18 C3
 FB FA AC C8 A8 91 12 48 5E C6 38 26 26 6F C3 DD
 F9 D9 CE AC CE 85 FF FE BC 75 CD 24 32 F9 1B 81
 80 0E E1 07 1A 99 F1 09 8B A1 6D 58 AF F5 0B D0
 9D 9B 3A 20 DF E8 47 4A F1 C7 9D C8 57 F2 87 67
 1C 45 62 5E 8A 5E FD 9B 85 B8 88 19 B7 8A 9A 8B
 41 6F E5 29 BC B9 1A F5 63 46 FC A9 6A 3C D4 DC
 36 63 2B 43 94 6A 9F 4C 7B F1 F8 21 80 8C 14 FB
 A7 AF 6F 50 83 E8 B2 F0 FD 4D C2 A4 59 30 5A 46
 D5 C5 4D DA 35 23 34 B1 17 4D 90 99 C5 1A AC 6B
 19 9C 97 33 2F 2D FC 75 0E 39 1F 46 86 B6 E1 EA
 09 24 FB DD 52 3E 2C 4F A0 65 C4 D2 DB 05 FB 1E
 3F FC 17 F2 92 5F A7 48 82 A0 7C 4A 17 08 65 18
 EB 91 9B B4 4E C6 82 19 95 86 3C 45 36 0B 88 74
 94 28 69 94 42 06 DF DF ED 82 EE 44 06 C4 A7 38
 EB 7E EB A1 CC 81 F3 F0 B0 55 0F C1 0F 2C A4 45
 A2 16 91 34 80 69 FA 2A A4 41 D5 62 CB E7 58 9D
 78 0E C5 E9 62 5A 75 26 3C 10 DE 46 E2 71 75 31
 C1 02 BE 2F E3 F2 1A F5 0F 12 F3 E7 DE 5A A9 E4
 7D E4 A2 1D 61 60 AE 0B 1E B6 5C EA 58 9D 99 4F
 A8 F0 24 E2 02 0B CE 39 AB 29 AB C9 BE 14 36 44
 B5 50 92 5A 2B 23 29 53 92 D6 EB A9 66 AD AD 12
 B2 E0 F7 18 C8 F5 41 47 45 65 4C CB 7C 4E 09 8E
 5D 89 70 19 80 3E 0D 46 6F 2D C6 E9 4E 2E C2 F6
 89 E4 5B 4F 2C 4F 5D 4C B8 67 8F 7D 08 18 25 79
 34 11 94 83 38 4F 78 C2 C7 B3 88 53 2E 9B 32 A1
 EA 4B 19 D9 8A 8D 98 E1 BD 07 A6 02 F0 BD 4B E0
 14 46 CB CF A5 BB 4E A6 EB 19 79 48 91 77 00 29
 73 19 D3 98 F9 AB 84 72 40 BC 09 9B 5B BD 4E F0
 3B 0B E8 EF 3E CF 05 28 DF 14 8B 2C 14 2C A6 3A
 84 E8 45 D0 0C 58 A1 4F 50 D0 E2 37 EA ED B1 85
 47 F2 1A E1 5B 8B D3 AB E9 A3 49 1B 27 A9 8C A8
 E5 CC 1A 06 17 25 A0 E8 03 D8 0F 8D 59 29 F6 37
 FC 51 FA B3 A5 7B C5 20 1E DF E0 85 AD DF 37 58
 FA 00 18 3D 96 06 E7 F6 18 C9 EE 3D 3F BE 6A 62
 1B 81 D6 8F 5B 9D 6E 12 D5 66 C7 53 F9 B4 01 15
 15 F5 27 41 B3 67 0E DB 34 6F E8 77 2D 1D 32 37
 2F 08 AA BD 52 AD 36 E4 60 13 F2 1F E6 CF 60 33
 EA 51 E6 E5 F9 AB C8 12 B5 E6 63 0B AA CE DC 4C
 F7 F8 E1 E0 92 A5 37 CA 71 4F CA 2D 82 84 BE FE
 8E 6D 97 06 D5 D2 CC 9E 6B C2 84 3E CD A8 23 B1
 E5 9C DB A8 82 50 38 0A 0A D8 8E CB AD C8 1C 60
 26 B8 EC 7F 63 F9 C3 EC 6B 16 03 FB 6D 8A B5 E0
 76 CF E3 DD B1 C0 37 14 05 5D 0B 48 EF 7D 25 02
 56 20 74 EB 97 99 62 5E DC AB 86 74 7C 59 5D 2A
 D8 2B 9B 39 56 33 85 C0 16 1F 1F 73 70 69 3B 5B
 AF 60 B7 F6 99 4E F3 5E 84 1B 43 60 31 28 62 8D
 68 F2 31 EF 7B 74 6D 79 6A 1A 09 DB E3 90 57 7D
 70 0D 06 96 45 F5 76 4B A6 13 6E 78 AA 55 D8 3F
 CF F1 76 70 0F F9 CE 73 F9 29 61 99 CF 40 4D CD
 EB 1C 05 A6 28 A4 15 DF DC 7F 0F DF 80 D3 46 EF
 62 02 84 BA 6A 0B 18 4A F3 0A 91 68 86 CB 28 C7
 07 48 7C 9E C9 46 6A EE AB 34 92 AE B6 14 18 24
 BF 18 4F 6F B1 72 84 08 3C 2A A8 22 1F 68 C1 58
 31 35 4A 00 8D 16 92 5E A9 FA 72 44 D8 75 EA 00
 26 F1 74 27 D1 C1 37 F8 76 31 32 35 62 37 58 8B
 02 57 7D 0D E4 6F 81 CC 9D 4D 22 19 1D 47 D6 6F
 AC B4 1D 3C ED 52 4C 01 F2 2A CF E5 8B 68 12 04
 E7 C2 0C D4 D0 BB 28 2A 29 FB F3 81 E5 58 AC 87
 D7 C0 E6 15 D1 DE AC F4 6A 2F EA 2E B5 A3 4B B1
 24 7D FA 18 AA F9 73 E8 FC 12 89 46 61 C5 80 93
 E9 D1 FD 4D 0C 91 EB B7 A5 38 19 FD 4A 85 5D A9
 A7 2F 4E 5C 5F 59 97 CF 94 2C 7F 4B 6C 29 BE F1
 EF 2B 93 61 02 1F 21 09 F1 A4 7B 84 24 B8 AA FD
 FE 68 D5 33 C8 CF 06 4E F5 09 74 CC 47 9D 5B C2
 68 16 FF B3 E1 08 E3 7A 30 BC FF 17 41 46 CD 4B
 9D 5A A8 EF CD 2C 0E 92 91 19 D4 19 5D A0 8E C7
 B2 87 4E B3 FF 8E 5D 6C 58 95 73 74 F0 D5 F9 8F
 DB 27 77 52 07 B2 72 B6 77 BD D0 67 9A FD BB D0
 B2 FA B0 3D 6C CC 49 32 F7 E7 B1 6D BB EB 59 80
 0A 96 54 F3 37 67 6E F5 D4 AD 1D C3 F8 52 B7 A9
 69 67 EA 23 6C 18 32 41 88 BE C8 45 B5 3D D0 74
 CB 80 21 B0 42 4A 6A 1B 17 08 28 ED 00 EB EE ED
 C5 76 D9 D8 E9 98 29 21 59 D1 72 CB AB B0 09 C4
 EA 63 E2 64 46 30 A1 0D 41 7C 97 CF C9 4C 8E 28
 7F 89 D9 B1 A1 D7 BA EF 78 0D 79 2E C5 7F 71 B3
 67 DB 5E D8 2B AC AD 8B 74 41 E0 33 06 A7 39 6D
 53 73 8E AA 76 12 C8 42 F0 80 7C 77 C6 74 43 FE
 6A 6C C6 C0 9D DF 9C 5D 8D DD 29 6F 59 86 E7 60
 81 A4 4B AC 12 22 E8 23 10 EF 48 35 38 01 29 E4
 7F 85 EE 82 DF B9 54 63 B8 C1 5D 1C CC A0 EF E3
 04 F8 EA C1 44 A5 AC 12 92 1E 52 15 73 A8 5D 8D
 1F 1E 99 3F 6A CB 78 9C 88 F8 EC 02 9C 8A CF 29
 67 23 65 6A C9 BF EE 92 83 08 3C A6 F5 64 E6 81
 E4 7F 02 2A A1 93 B9 E2 97 9A EB 9C 6C 9A D4 1F
 B9 6D 36 4A 8C 1F 90 18 18 F6 F8 F9 A5 0D 3D FB
 E7 B5 69 F2 D9 11 B9 CF 5F 0E 3D 97 FF FA 47 6C
 3A 1B A0 CE E5 3C E2 D0 DD AA 90 85 AE 13 A4 5F
 77 16 74 62 18 33 DB 6D 92 DF A3 35 20 65 D1 C6
 A2 FC 2E AC 26 FD B4 83 34 E4 E8 FB B2 93 1D DA
 B7 DD CE F7 F4 44 DA B2 AB 95 6D 4A 71 B2 D7 32
 AE 8B F7 F0 08 18 2B 63 5B D3 B4 B4 5D 76 2B 8D
 09 E1 05 FE 5B 68 44 72 B4 80 A8 15 8F 9C 0D EE
 C8 18 C3 81 75 64 6C 19 A4 E3 23 55 93 0C EF 53
 AA C1 64 C8 A2 25 D2 41 30 E4 3A 3C 68 61 D7 27
 77 87 B5 B2 56 FE 49 4D 38 63 AA 45 EB 0C DB 79
 17 41 E8 BB 7E 3C 69 99 A1 09 7E 81 3D F2 1A 4E
 DA 1F F1 C5 87 8A FD DB 28 AF 62 5E AD 32 8B 61
 6C CD D3 82 50 22 0F CC 10 43 B4 1C 1E 41 D0 AC
 DE 06 C7 C9 2B 37 A6 5F 65 5B EC 95 3E E3 F4 39
 38 65 C2 12 36 2E 4F 02 3D 69 06 4B 6B 91 AF 37
 8D 6E 72 E8 78 D2 49 6F 54 17 B1 F5 14 DB FF A5
 BD 6A 75 0C AE 9E C9 95 00 59 46 52 6B C2 B1 CE
 7D 19 7C 13 5A 8E AC BB F0 A2 C7 CB 58 89 11 77
 4C ED B9 53 F9 8D AC F5 99 A0 D9 62 B2 B1 3A 66
 E0 F7 08 17 C1 76 FC 6F A5 B4 EB C3 B4 73 21 3F
 98 01 EF 3F DB ED 0B 2D 3F 24 10 C6 9C 36 1D 13
 A5 14 72 FC 9B DC 55 31 32 96 14 39 16 CD 43 8E
 04 70 E7 FD 1E 2E 9F 4A 86 50 A2 2E 52 B0 CA 4F
 97 4F 3D 32 7B 42 93 69 35 00 99 70 7E 15 9E E7
 36 E0 F1 DE F5 96 22 C7 5D 27 B5 1C 1A 57 65 D6
 F2 8D FD 9A FF D3 E9 87 DF E9 D8 8F B1 3B 87 8A
 4A 15 D3 4D 45 2C E2 83 42 F0 74 17 BB 19 05 FE
 0B 47 F5 26 E3 D5 6F F5 DB D0 DC 3E F6 53 8C AA
 EC 99 58 6F BE 7A 29 7B 8B 63 A7 AE F3 D8 F7 57
 22 E7 7C 4E F0 40 21 1F EE F4 29 D6 E5 68 4C A9
 0C 9C 8A D8 3F 75 75 C3 CA 21 43 7E F0 87 18 30
 BB 25 AC 3E AB F5 42 B9 28 53 68 DA 42 FE 9A ED
 BC CC 78 A2 7A CA 45 89 CC FB B8 D5 33 1D 9B D2
 3B 28 02 95 45 E2 DC 97 06 1A B9 A1 E1 1B 3F D8
 A8 2D 52 C5 CA D7 88 69 78 BA D7 1C AB 59 E5 35
 D7 B8 4C 76 8D A7 1C 3D FA EF E2 A6 A6 B7 B5 FB
 C2 04 BD 53 82 44 D4 89 4E E9 D2 A5 B4 69 3B 6C
 7B 79 17 EF 8D 86 3E CB 68 4B 5E DB 19 08 F2 DC
 89 F7 E7 A6 12 EA 00 6E 5F 00 2C 8E E3 0E 52 2D
 0C CD 30 29 A8 E0 42 A1 F1 2D 1B 8D D9 06 95 96
 AD 74 86 84 AC F9 6B 7B 95 AD ED F6 7B C8 5B C8
 57 AA 81 FE BF 0D 25 7E D1 BA 61 7B 6C 72 11 02
 E5 8C 96 D7 A8 C0 E8 D1 8C 83 24 9A B1 20 D6 96
 72 6F D4 8E 83 DB 47 13 AF 78 AC FA 4D BF 80 62
 0F 53 A1 E9 37 C2 AE CC B9 AF 34 FC AF 89 ED CF
 A8 21 04 A5 C8 A0 11 77 59 EC F5 E2 CB A1 09 70
 E2 89 1A 62 D4 33 FD 21 05 7D A9 4A 7D C7 82 7D
 F8 63 4D 3F 6F 1A A9 E0 AD F4 29 7F 2A 0B 39 99
 7D 88 43 E9 AB CE 6A 83 8B E2 CF C4 9D 1F 96 43
 2C 35 6B CC A7 4C AB E3 2B 82 55 6A F9 0D EA 3B
 70 E7 A9 E9 89 1D A5 76 50 35 03 BC A1 B8 B8 FA
 4B BF 06 7F 53 8C CE CB B8 C7 3E 7F EC 51 22 23
 B5 6E 4C A2 D0 D0 C7 72 48 FB D3 EE AA FC 55 43
 A0 69 14 E0 FE 06 1A 1C 28 2A 6E 31 9B B4 92 24
 78 74 58 09 A5 16 AF 40 F0 D4 B9 82 80 D1 C6 A7
 2C D1 EE 92 5C 5C 43 D1 7C E3 E3 03 2F 87 91 9B
 D6 71 7D 58 DC 72 62 C2 09 5B 69 43 3B B0 51 FE
 BA 21 07 2F E8 BD 8E 6C 70 71 C4 D1 C1 4F D5 0C
 E6 6B F3 92 5D 29 61 68 E6 A8 53 C1 CD D3 4B 74
 3B B9 31 93 F6 AD F0 3A 64 C3 B8 B2 85 38 3C A8
 B9 34 DD CF AD 5D CD E6 1A 25 B7 57 15 A7 BE B9
 40 07 0D 3F AA 3D C5 BF 3A BF 71 30 B2 0D 44 ED
 FF 22 C0 72 99 FC 2E 2D B3 6E B8 3F 99 97 6D 0D
 28 B1 42 E4 08 B7 3A 25 DD 8E 68 EE 0C 60 CA 0F
 02 DF C9 B0 EB BC F6 8C A1 5C 92 6A F1 73 9B 29
 3F 5B 69 E6 A7 A9 7E 18 CC 13 51 DF CA 59 45 19
 2B D5 53 E1 E5 14 6E 1A FA 55 39 8F 10 ED A9 D5
 4F 33 EE AE D1 55 5A AB 5C 1F 2E 90 29 BC 12 CB
 9D 2A BE 76 8A 15 14 68 53 EF D2 78 28 61 50 75
 D0 A1 2F F2 75 05 C9 31 41 1F 30 37 F0 E9 7A 25
 17 10 41 B3 0C F3 07 2A F7 5B C6 F2 5F A2 63 CE
 C3 DC 73 49 94 23 9A AD 2A 34 AE 78 98 EA A1 1D
 A7 A4 ED D4 84 28 C8 89 D6 82 0A 0C E2 9B AF 56
 8A 53 29 FC 50 05 EC 83 8C 83 2B B3 75 8D 94 35
 0B 18 D7 10 B7 C5 D0 E2 34 1E 53 E2 F3 F8 D2 E8
 B2 A0 F1 C9 27 F9 DA 58 D3 6B 1C D4 8E 6C 16 3C
 3D F6 10 64 D0 58 BE 57 59 ED C7 11 78 F1 54 B9
 3F F7 FD 56 55 FA 7B 84 4C EC 44 2A FC 72 E2 A1
 9D 52 64 AA 41 9D FC F9 C4 1B 6A 61 72 B8 C1 4A
 38 F2 68 9B AF F4 A0 F4 0D CE DC A0 60 3A F9 97
 9E 69 08 94 0E 70 F1 E0 89 E5 5F 23 09 90 35 E7
 D7 C4 38 F8 03 BE EE 79 F0 4E DC AF 33 0E 70 5D
 16 E0 04 83 C7 39 C3 A0 A2 08 DA 22 EF D5 69 CF
 8D 3A 20 AA 1F D3 F5 FA 93 96 B3 5A 7F D0 0C 3B
 36 7E A4 E5 B0 70 26 2F C1 AF E1 67 7A 97 ED 04
 7B A5 51 AF 09 0A 7D EE 80 CA CB 61 57 46 F0 EB
 9C 13 D1 47 04 DD AC 64 D4 5F 4C FC 19 8B 5F FE
 D8 E0 E0 76 FD 2C DE 3F CE 15 91 76 70 75 CF 90
 90 BC 56 2C F8 CA 79 B1 47 7D F1 EF CF C8 EC A8
 63 0B B4 0F 6B 60 A5 46 F7 CE 2A 95 9E 6C 4D B6
 C1 E3 B6 EE 38 5D BC 41 9F D3 4A FE 86 05 E3 1E
 2C 6C A6 70 1C 6D 3C 5D 17 A4 8D 34 B2 0A A9 AA
 C1 4C 28 8B A6 B8 5F B0 33 F0 1F 8C 67 6C 8B DD
 3A 84 1F F1 BB 36 E6 F4 0C 34 29 EF 0D 25 70 A2
 F9 87 72 52 10 A3 D4 34 D9 B5 1E 63 41 87 1A 20
 C5 C2 D9 98 D1 84 FC 70 C6 F6 22 55 A7 45 DC 26
 F0 08 32 E4 4C 5A A6 5A 4D 2D 87 38 17 47 C3 7E
 63 D8 D5 E7 EF FE 38 8B E4 7B C8 F4 10 70 E4 F7
 30 CE 83 26 98 C6 6D D2 D8 CC AA 52 EA C5 85 F3
 01 DF C4 62 9C 88 32 FB C9 58 6C B6 26 14 CE 0D
 34 0C F5 C9 EC B3 32 F0 11 93 1F F8 3C 8C 96 E6
 D4 60 CD D2 AB 37 50 9D 72 D8 C7 DB 4B 9C 1A 98
 3C 50 DE 55 3A EB D1 3F 4D AC 1F A6 A6 E1 AC 30
 B5 2F C1 17 4E 29 F8 DF BB 98 78 88 9C F6 78 7B
 D4 4C E1 A1 E4 A2 92 6F 8B 34 3A 0A 06 3B 6B 34
 43 7C 34 45 A1 36 A3 9B 5C 7E F5 1A D1 0B 77 DD
 60 3D 22 53 56 35 8B F4 72 0F EB 89 30 D0 DB AC
 22 6A 4B 35 23 0C F5 FA F0 45 9F E0 EC 8A 38 C0
 D5 68 FF 12 E1 BB 4C 6B 4B 41 17 92 94 97 1E 13
 AA F5 AB 9C C5 0D B0 DF 3D 01 18 F5 7E A6 96 90
 D0 5A 06 BB D0 92 4C 4F AB 49 2F 3A E2 7D C4 83
 81 3C 69 D2 E9 22 2A B1 B9 D6 76 58 AB 07 BE 4D
 5D 57 7C 63 5E 46 EB A6 9D F1 0C 4C 8F F8 9A 43
 6C 33 1B FA 59 BC EA 7F D6 BB B2 C8 7D 41 8C 89
 9F 5C 77 E9 A2 92 B5 2A F2 A0 06 57 D5 B1 91 4F
 5A 06 DC 8C 63 B0 5D 4F 14 51 32 54 FB 47 84 41
 A4 0F 54 A8 C4 25 BF 4A 2E B6 32 9E EB D4 04 CF
 5B 84 E4 A5 15 25 D7 B5 31 F4 50 6C C4 9F CC B4
 FF B0 AD 7E 76 A2 3D A3 A0 04 C9 70 AB C3 09 36
 F0 3E 5E 10 97 8B C7 94 43 60 68 C0 7F 2F F5 EA
 E4 B4 80 D9 AF 65 BC F4 EE 44 E3 51 E0 D4 C3 14
 7F 32 4E 3B C7 41 1C E7 BC 0C 1C 6B 29 40 E0 FB
 FF 7C A9 4A 1A 57 D9 D8 4B 71 E7 27 C4 82 39 D5
 97 66 E4 F1 62 72 FD A3 7E AB F4 CC 76 7E 62 87
 16 59 BF 96 5D 8D B6 87 A9 AF 25 7C E2 47 6C 66
 77 93 29 75 73 05 47 27 E9 E7 C6 2B 4E C0 BF 49
 73 4A 25 67 75 1B C0 B2 AF 9F 47 9A 27 D7 97 73
 64 02 74 DF BB F8 00 19 9F 66 5F 81 D2 3C C1 4A
 54 AB 8D 79 53 13 DC 41 82 6A 45 44 ED 88 8F 65
 EC E8 6B 99 80 0B D0 B4 74 1A 52 A4 E7 E5 03 86
 1A 69 02 8A 11 53 48 E5 C4 B8 AB 64 58 5B 5B 73
 DB 26 0D 42 35 D2 90 D3 3B A5 F6 E7 D1 86 7C 2E
 C2 AD 74 B6 19 44 B6 1F 2B E7 CF 17 4C 92 80 2C
 3F D7 97 E4 B1 DC 5C 38 24 9B EF 4B B3 5F 2C 6A
 77 32 FF B0 9E 46 5C 62 28 B8 81 F0 4B 4E 7E 91
 8F 71 D8 79 C4 D3 02 6C 3A FF 3E A2 07 DA 36 B2
 D2 D6 E1 E1 C1 CA C7 AA BC 8C 2B 5B 32 38 E4 33
 69 E8 DC D6 84 B3 AB B5 95 62 E3 82 76 E7 FF 4B
 E4 01 2C 81 DB EB 5C 49 C2 0C DA 02 06 DB 6B 7F
 EC 55 B2 1E B0 D6 25 25 5D B9 C5 5F 83 ED B1 3C
 7A B8 FA 01 85 2A D8 40 75 0F 1A 6D 89 36 8C F3
 6D 1C DB E1 E9 E7 43 A8 86 21 FC 55 B9 75 91 61
 A0 66 56 F6 95 31 6B 8E AE F0 9F 30 EA B5 8C F3
 01 2E 75 BA D8 BA BB 9A 83 82 7E C2 31 67 25 ED
 78 C1 C1 51 8E 3E 2C 24 7D 5F 00 CA 07 54 94 C1
 F4 5A 2D 17 D4 0B 96 B9 F3 60 D2 1D 2C E4 B8 1E
 1A D9 2F A4 85 D1 91 61 2E 2F BB F7 49 3D EE A6
 B0 4F 84 21 16 90 0C F1 AF F0 EB 4F 08 61 6F 23
 2D 8D CB 0D 35 A0 F4 84 10 8A 7D 35 C1 3D 30 F9
 33 37 4F 6B 11 41 8F EA E9 EA B5 82 A4 4D DA 79
 B7 DC C4 C9 ED 4D FC C3 EE FC 82 BB FE A5 DD 30
 D4 DC 45 05 E8 58 17 30 DF EF D8 93 0B BC D4 B5
 69 EF 2B F8 3B 0F F6 B4 FA 3B AC 77 39 B5 96 28
 13 E8 5C 9B CE 22 A0 D4 F2 68 55 BC 53 07 F7 A4
 35 8D EB 72 25 D2 9B 8C B6 AD AE 1D 56 7B D7 FE
 C2 13 D6 3F D2 B0 E3 BD 6A 48 77 65 E9 5F 8E DA
 B9 D3 C0 60 7C 9A E2 74 51 12 56 A6 76 A1 3D 2A
 9A FA 0F 14 30 3F DD 54 E3 C3 CC 97 F9 79 8D CA
 0A 74 F8 8C D0 7E 57 8C A0 2B A9 E0 9D 5C 34 8A
 42 C1 C4 E3 67 1D C2 50 47 57 76 26 4F CD 81 71
 0A 33 C2 0F C3 85 0D 77 F5 98 9A BB F0 AE 55 7B
 60 B2 3B 69 92 2C 09 A6 6B D9 B0 01 88 B4 D7 35
 94 96 41 F2 18 4F 15 70 EE FC 6D 09 A7 11 20 06
 84 68 5B 39 2D 01 7E 6E 6E 7A 4B AB 63 57 A2 73
 C2 85 D3 E1 95 8D 9C 08 70 B7 1E AA 93 42 C3 68
 A6 D5 D7 E2 7A 59 9A 7E D4 C2 5F 30 D0 AB 51 86
 F4 C1 E6 24 B6 A5 53 9D 9E F4 62 96 19 0B 8D 18
 8E FA DC 61 97 8B 99 90 42 70 58 79 08 6C A0 9E
 8F C5 76 9C 4A 17 EC 5B 01 22 77 42 B3 C5 FC 58
 D8 57 5C 3E 0F B0 FC 3D 70 5E 1F 42 72 BD D6 C3
 A3 B6 DD 74 CC BD 11 70 04 4E 0B 26 ED 52 19 13
 A3 1C EE CD F5 62 A3 89 8E 67 30 90 6C 51 6C 59
 8B 44 99 01 36 C7 DC 0E D5 92 37 EE FD 19 F3 1C
 12 61 B3 D3 68 59 26 66 3F 67 4B 20 06 72 5F D2
 36 AA 5B F7 6B 01 BF 5B CD BC 11 D7 C1 30 D6 51
 B8 02 6A 5D D6 04 09 F6 2E C2 AE DE 84 03 8F 9C
 01 CF BC B5 DF BF 57 53 06 58 40 EE 04 42 F7 DC
 B4 9E 37 24 10 FC F7 B5 93 9A 42 55 A4 9E 76 8E
 17 59 B9 E9 2F 3D F1 49 DB 65 67 DF 10 82 F1 3F
 CD 01 52 11 40 4B E4 22 9A 86 E5 0D 9D 8F 31 E0
 88 A3 BC 89 DD AE FF 7E 2B 1E 8D 64 E3 FD 37 5E
 DE 50 8E 37 4D 7A D1 D3 68 51 05 C9 57 D9 46 EE
 6F ED 88 58 BA 05 B8 4A 5F 1D ED 89 D2 D8 13 E7
 2D 09 AC F4 31 54 67 A9 43 3D 5B B9 15 22 6A 3A
 0D 92 73 F5 4C E3 D3 CE AE 53 6C 47 F8 F7 6F 43
 E8 50 19 E6 4C B1 F2 AA B0 4A 03 BC 24 17 27 A3
 74 7F 7E 92 7D 18 72 EB 2A 59 E9 E5 59 F6 F0 1B
 77 1F 24 8D A5 9D 5D 16 BE 3A B8 D1 9B 7D 87 D5
 90 1C AB 1A 5D A6 20 8C 7A F4 A5 98 D2 B2 6D D3
 CB DA 91 D1 92 C6 9C 68 D6 FA C0 58 53 D8 44 EF
 DC B6 05 1C 28 8A A8 19 74 A1 0D 3B 2C 55 DB 8C
 2F 65 2C 34 21 33 BA A2 82 63 D4 38 F9 77 89 84
 35 05 77 5D 60 13 1A 03 70 04 0A F1 99 8A 17 DA
 82 67 4E DF 62 72 DA 6E 62 DF BE 57 5B 23 A6 09
 F9 67 70 AD 9C A8 B8 6C 0C B5 8F A8 A0 34 7C 7B
 3B D9 67 1B 5F 0D F4 F6 B2 40 52 25 DD 97 EC 82
 DE AF 28 30 7B 8F 81 87 B7 D6 FA DF 14 98 40 9C
 ED 06 B3 CE B2 51 69 5D 1C 5D 32 95 E1 52 4F 66
 52 2F 38 55 3C CA 6F 73 11 A4 7A A7 81 94 A2 4C
 6F DA 03 CB 3E E2 FC 74 1E 23 83 78 82 20 5E 06
 F7 69 E6 48 42 48 65 3F 53 CB E0 53 46 51 5B BD
 24 28 25 BE A0 F4 B3 84 51 9F F8 39 D3 77 13 F6
 4C C5 4A 0F 76 55 D4 4C 3F 46 57 98 00 65 B8 B3
 92 84 C3 18 9A FC 67 23 0B 39 0D 58 8E BE D2 18
 2C A0 C6 E6 0E 59 F5 D6 CE 2A 29 CF 65 B4 E2 1B
 2D 46 70 66 EB 57 CA FB 85 0F B7 49 7F DE FA 1A
 F3 A0 E6 0B 1F 90 66 E1 80 51 6F A9 7C 48 A5 74
 1F A2 C2 14 FB B2 DB 9D C4 E1 85 9A 5C D6 76 A7
 4D 6B A1 18 B0 44 79 0F 6B CC EB D2 56 93 51 A9
 89 64 94 6C 2C 93 EB 5E 9B 51 13 07 66 93 E9 04
 B2 BF B7 B6 54 6E 77 C5 8C FC 51 9B EF 88 B0 50
 0A FD 87 F9 CD 7E 74 9A CF BC 63 71 B9 50 CC 06
 C5 78 55 FD 5C 14 BC 70 43 C9 EF 9E 14 FF 12 D0
 71 BA E1 B8 87 15 F3 D4 AB 31 81 13 C3 F1 BA AA
 F9 2D 0C 73 8C 6B F6 65 4B D3 5D F5 7C 27 9C 30
 42 AC 6F B6 E6 69 CA 45 3B E2 34 75 E7 BD 22 D5
 7A 29 44 45 3B C4 8F CA 43 CA B8 E7 E9 A0 85 73
 7C EB 52 8C AC C1 8A AF 84 4A E3 92 78 7B 30 CA
 C3 E4 3C 6A 64 07 8F 01 FF 69 20 F8 4A 10 2D 54
 AB D3 B6 9F E0 76 9D 7C FA 50 CB A5 CF C5 1A B0
 48 1C B7 72 97 87 72 8C D3 1B 9A 66 01 3A 6C 4C
 44 02 30 71 BA B3 DE B8 1C 7B 5B DF 2F 33 CC 14
 8F 71 54 25 59 0A 9E BF D3 C0 2B ED 0A 40 18 E3
 09 DC 48 37 30 9F 5A 5F A0 6D E8 B6 75 79 C7 2B
 2F 28 9F 1E 53 95 8A 9F EC 54 28 1A EC 32 AB 2B
 97 C3 17 09 58 AE C1 B6 A1 5D B4 46 09 B3 D2 89
 20 92 DD 66 E2 BC 61 23 10 3F 3F 01 73 4C C7 C6
 C2 CE 82 0B D1 3A 1E 87 FE AB C1 F2 6B 35 E6 99
 E4 C6 81 FD 42 3A 22 74 6A AD F3 10 F0 9A A9 EB
 D3 42 C6 DE 5D 0D AF 04 41 C2 E7 1C C7 A5 79 01
 7E D2 F7 28 A0 1C D0 AC C8 D2 D4 52 D3 43 87 1A
 47 FA BA 0E EF E1 D1 57 77 05 26 B0 47 A1 22 65
 DF 91 C5 8C 0E D1 84 CF 5F 84 2A ED 97 97 9F 5A
 1A 2B 26 5E A6 A5 85 FA 76 A8 37 B7 FB 9E 27 94
 6B F3 F4 00 36 58 35 B7 10 EB 22 82 83 40 0D C2
 46 83 6F 4C 38 A2 8F 3E 7C 96 1A C0 BB F9 63 3D
 F8 B1 83 2B C7 B8 AC A0 FB E9 7C 3F A3 2D B5 15
 0A 3C 3A C5 63 B8 57 DB 08 18 C3 3A E8 29 DD 40
 C9 2B A7 C0 56 4F 04 6D 66 C4 24 9C E3 75 72 14
 67 4F 15 7A 49 27 92 42 C5 C2 9D CE DE 7D AF 80
 7C A5 05 C5 12 EF F0 99 D0 A0 36 B8 7D 3E 42 52
 FA 21 CF 81 EC FD 52 F7 B9 6E 5F 9F 9C 8B 50 16
 18 6E C1 B6 3C AD 2F 1A 6E 74 BB 2B 53 E3 C3 64
 5E 64 BC 08 98 44 96 F3 6F 51 55 0A 39 25 A0 8D
 B5 0A 4B 12 82 5D A3 B7 1C 44 1E 7F F0 D5 A1 EA
 12 7C 9D 89 F5 89 21 D2 AA B5 00 65 16 1C 8F D5
 BB 47 F2 A5 05 98 B8 18 CF 95 4F E6 1A 39 72 9A
 C0 F5 5F 6B 8B F0 83 96 12 B0 B3 9D 69 94 D0 B7
 42 80 2D 33 2E 59 E2 F7 AD 16 1C F4 2B 6C 6C 33
 5E 11 1E 36 16 B8 C1 97 97 19 E1 68 A1 3A 26 83
 AC D3 D7 3F 54 52 E9 EC 85 D6 3A 94 FF AE 3C 80
 25 6A 3A 86 44 73 13 4C 15 87 BC 3F 04 DA CD 65
 70 8F AB EA 80 64 52 9D C8 5D 6A B6 5E C6 A9 08
 92 9F D1 98 0A C6 3F D4 72 1D C1 EC 9C 3E AB 0E
 DF DC 54 CE 99 B7 0F 1F 59 DC 5B F5 E0 83 DE 3F
 4C ED 42 27 81 47 D7 50 4D AE DC 25 8C 17 64 FD
 E0 AD 29 D1 07 90 34 F8 BD FA F1 9B 15 58 1B 05
 22 C9 67 F9 E8 C3 35 A7 BB 44 A0 F7 DA 92 32 41
 3B 04 48 D4 BF 62 EF 80 20 B5 8C 1F 82 77 D9 F0
 10 62 71 0C 26 DD 95 84
* End 3839445366 605157873