* LTspice Encrypted File
* 
* This encrypted file has been supplied by a 3rd
* party vendor that does not wish to publicize
* the technology used to implement this library.
* 
* Permission is granted to use this file for
* simulations but not to reverse engineer its
* contents.
* 
* Begin:
 4E A2 DA CC F2 E8 06 61 4D E1 D5 23 90 13 CD CE
 0D 46 59 BA 25 33 64 12 C7 3C E7 AE 9C 61 28 21
 1E 80 98 7D 56 29 CB 21 F3 1B 63 A3 E8 E2 E2 97
 74 8C D8 0F 0E 7A 18 A9 06 11 21 2C A0 68 D0 8B
 62 23 DC 5E 7F 53 82 51 BC 59 25 D0 8E F0 52 FA
 07 E8 89 4F 19 92 BA 5C 1B 79 22 93 56 BC 61 C0
 61 ED A3 19 02 6C DA BC 04 EA 84 27 B9 4C 10 67
 C5 09 00 C9 1B 9D 85 38 26 AF 6B 05 D6 35 75 51
 9D 2C 64 12 B2 25 5A 50 86 73 1F 0D A3 E5 B7 9E
 AD B1 23 16 79 F3 71 B5 D9 79 47 B5 65 18 B8 AF
 C9 A0 4F 14 97 9E 11 31 65 6A 52 1B 5B B0 75 61
 1C 0B B5 D3 D2 92 6E 62 C0 3B 5A A5 7F 00 EA 35
 0C BE 48 E8 20 FF EB A9 4D 9C 8B 8E B6 BD 60 EE
 A8 58 9C 2F 51 51 CB B6 C3 6D 9F 3C 09 C3 9D 56
 40 7D 4D DA 3E D0 DE 9F 78 25 38 30 AC E5 FB 5B
 F7 EE 7E FB 43 F5 3A 02 15 9E 91 D4 F7 BC FA C3
 44 6F B6 D4 AC EB AD 7D 38 8B 41 CF 76 62 6B 98
 33 C5 0E D0 0C D6 BB 68 AB 1D 03 74 64 7C 59 DC
 C7 A3 39 2A 78 73 B8 BA 93 94 29 12 3B DC A6 8D
 75 0F 16 BE 1F 31 9F 98 94 B4 51 CE DA 46 D6 A1
 1D BE FA BB 54 BC 03 EB 17 18 BD 95 3D 5A 4B 6B
 EC 26 21 8C 4F EB 8D 29 C8 93 6F E8 D5 D1 5E 02
 34 34 A6 C3 1E AB D3 DC 99 44 C5 49 CF 0F 82 1B
 A6 B2 BB 57 24 97 7A 2C 61 06 F1 A7 2E D8 3A B9
 71 44 66 72 EF FA 61 A5 4A DF 0C 86 75 6C EF F5
 2B 1D 9D 97 01 05 74 40 70 5C 7D EE B5 A1 FB A5
 77 BC C7 4D 54 97 76 A6 3B 57 E6 68 96 62 30 FC
 AF 4B 15 3C 70 B7 0F 24 A9 B7 25 98 14 48 C3 80
 1C 6F EF BA 26 0D 55 AA 5C E7 F9 B1 58 47 E2 0C
 4B F2 53 62 05 A8 FA C1 A7 B4 4B 30 46 80 16 71
 0E C2 05 9C 7A 55 1E FC 80 C9 35 9F D9 7C 1A CE
 EC A6 31 B1 FE 2A AE C4 6F 1A E7 DA 1B 0D 9A 1D
 34 4B EF 4C 98 D5 8D AB 33 9C 34 1B FC 0A 63 37
 A9 8C 59 0C D8 E6 8B 53 53 00 B0 59 16 72 54 D6
 5A 73 C3 B0 4B 47 76 68 93 8E 28 F1 33 42 1B 91
 45 4C 99 F6 19 07 30 1F 0B CD DB E1 5F 2F 57 59
 DA 98 FE 80 1F F2 90 27 E9 58 3A 68 F5 73 4D 76
 E5 C6 D6 60 00 BC F3 25 33 4F 4A D1 DE 31 09 75
 76 34 08 B5 9F EC 98 78 D1 32 E0 92 1B 97 67 E2
 DE 86 E4 AE 19 FC 7D 7C CA B8 D1 E9 D0 06 DA 43
 D8 88 CE 8C 6F 82 7D 1E DC 56 F1 E1 DA 27 BC A1
 8A 46 27 C9 1D A7 BE 6A A1 8E AA 15 2D D1 3B 43
 D0 C1 EF BE 4C 64 96 F8 77 C8 F2 7E 8F D9 6E E2
 DB 08 F2 EB 5A 1E A4 FF 8B 9D 23 64 59 05 CE C1
 3E 1A A7 2F 18 05 10 CF E3 80 33 59 1B C2 8D 3F
 F9 BC 50 B0 74 AE D8 B4 C4 EB B8 26 A6 DD F8 29
 D8 39 33 9F AE 87 A1 57 C5 B7 F4 3D 40 7D 90 B0
 AA 3B C5 03 45 60 D3 55 D1 2D 30 91 61 2F 91 B0
 5A 59 BF 20 07 A8 2E 16 DB 5D AA 81 83 3F C8 A9
 AE E9 63 8E E3 00 76 5C 40 79 C8 DE 5B 1E 7E EC
 E0 21 A9 9D 84 6E 53 46 D2 3B 0C 0A C7 94 42 DD
 66 2D 90 9C 2B B7 49 AD B1 C2 42 F3 FC A2 B9 8F
 EE D2 71 57 1B 98 2B F3 CC 77 53 A8 A6 DA 70 27
 FC 10 B7 EA 0C EE 92 E3 F6 20 B7 EF 72 06 64 D4
 D0 71 BE 58 94 7A C0 FD A0 59 C2 05 08 77 29 CD
 36 45 70 1E 38 5D 43 14 73 56 24 87 0D 0A F2 1A
 58 4F 02 0A DC F9 91 1A 68 53 9D DC CA E8 5B 4F
 FB 01 1A B0 EB 36 58 17 59 BD 86 65 6E 06 93 27
 04 38 44 74 62 0B BA 12 98 46 C7 9D DD 8D DE 51
 02 E5 25 5A 11 70 FF EE 4D 03 9D 44 22 6D 1F F4
 12 BF FD 50 7B B4 D5 1F 95 CD 2C 4A 10 64 C2 52
 05 9B 9A D3 13 EB 25 3C FB 77 6F F0 E7 D7 06 0E
 4D 80 5D 4B 64 21 55 78 98 A2 57 09 68 BA 52 41
 76 09 2C F6 FC 09 25 6E 30 2A BC 2A 61 7B AA 45
 D2 8F 88 8D 51 55 C0 4C 08 B4 52 38 25 FD FF CD
 E4 B8 83 52 47 5D 0F 6B DC F2 2D 24 98 F3 9F E7
 85 9E 44 C4 1C A9 FC 9F 16 82 67 C0 3B BA 8C E1
 27 CE 34 8F 5E 64 69 AB 64 CD 6F 71 AB F1 68 1F
 FF B6 D3 7E A0 35 D7 E3 C7 EF C9 D6 62 36 67 C5
 76 9C 79 F6 2D BF F7 1C DD 63 34 FE 38 03 C1 E2
 98 8D AC 87 82 BC 4A D0 3F B6 52 D0 C1 DC BC 59
 29 E6 B3 F1 F3 83 08 A4 7C A8 87 DF 88 E5 57 7F
 8C 5C 38 99 23 4B D0 3E FF 4B 18 AC 90 DD A2 26
 9A 9E E1 2D B1 71 54 76 0E 5E BC C5 DD 37 AD E8
 B3 78 02 8D 89 4A E7 5D D2 E4 6F A3 6D F4 47 87
 C0 E6 CF 4D B3 70 BD 66 32 3F E4 14 8F 31 5E 8C
 AC 51 B5 5D 23 9F F3 B8 CA F2 E5 6D F9 2B C3 B6
 7C 3B A7 E6 5C 4A A8 96 9C 3A 0D 2A 1D C5 02 3B
 B0 C7 E3 63 31 C6 AA D8 98 0D BC AF 85 61 E6 AD
 B1 4C D0 C5 24 FD A7 B3 97 55 FC 6A 36 0E 6E A4
 F9 5A 75 EC E8 F4 5C 96 7A AA 00 54 2D 30 14 29
 6B E8 97 5B CA B1 A3 75 6E 4F B6 69 65 19 3E C9
 8E 78 86 8A 28 5B 6D 2D F3 33 D3 89 F8 03 62 3F
 28 B1 D6 02 75 DD 84 43 95 5D 9D C0 43 31 5B 2C
 88 B0 EF 3C 8D 23 F2 4B 5C 28 41 4A D7 A3 66 BC
 DC B1 74 10 FE 9F 6A 37 C0 70 E4 5E 68 5F 23 39
 3A 90 E7 B3 89 48 1C 3C E9 2C 3E F7 BC 24 BD D5
 11 0A 6A 8B C5 60 5E EE 8F 4F EB 3E 2B 98 F0 66
 E4 53 2D 8D FE C2 C5 FD FB 2B 52 FE 9E 95 51 8C
 C2 4B 05 8B BF 8D 25 5D B1 D9 3F 00 88 51 B7 EF
 C7 47 71 45 FD 75 3A 52 CC 19 2B 55 CD 78 33 A1
 E1 29 AB 1A 2B A8 D6 BF 07 AC 55 4C 33 7E 82 18
 E8 FF 1F B2 A3 49 6E AF F8 25 21 9B 6E A7 5D 9D
 D6 4B D4 38 D3 E5 9C 50 15 06 ED C7 A8 C4 92 46
 2E BB 34 41 5B 54 D3 7A B3 82 89 E5 01 89 E6 7E
 94 30 56 32 09 B2 61 A4 15 C7 78 14 6A 30 44 89
 B1 98 C3 8A 9D A3 33 29 3F F7 D1 51 78 59 DE AB
 B0 40 40 29 B3 A5 B9 D6 FB 1A 2F F5 36 E7 B5 9A
 7E 6C 2D 3E D7 5E 7A C1 D1 FE A5 AC AF 9D 95 B6
 0D 09 E0 C0 4B 1A 41 91 F6 45 71 EA 9E 4F 4F 4E
 89 DE EF 8C 29 BD AC E8 76 46 0A BE 72 B0 AA E5
 9F 03 48 2E 98 28 B3 14 39 7C 1D 59 D3 DA 24 07
 DF E0 C3 15 C7 61 12 57 77 0E A7 AC 40 D5 C2 29
 EB 7B 8B 48 CE 65 BC 74 31 02 EC 44 55 8D C5 EB
 2A 97 41 6E 25 AE E8 6F 87 CC 09 47 6E BD 14 E8
 22 B6 A9 05 1C 8E B6 0F 74 C6 D7 4F DE C5 AE A3
 78 F6 38 E6 13 7B 07 39 DF 1D 99 88 AA 93 CE DE
 A2 EE 7D 23 8D 4F BD EF 99 B4 91 0C F3 10 78 79
 55 2E 56 8A 2B 1F 81 8B 3A 00 CA 02 EB 56 75 25
 CA 65 C3 E7 19 DF F5 5D 8A E2 8E 1C 3D 24 D0 44
 24 F6 A9 18 E5 29 A7 89 95 20 F5 0D 10 B1 FF 61
 75 C0 17 05 1B B6 93 3F 20 55 DD 2E 13 68 04 7D
 90 5F FB E9 D7 1A 74 3C 00 C7 63 92 21 7A 0B 65
 9A A4 38 ED 10 1D 69 39 3A F5 38 C4 F1 6B 06 17
 CE 8E C5 AB 5F AB 65 6C CB D6 6E C5 7E 5A 80 CB
 52 A7 84 85 B5 CE BD 31 A0 80 1A 77 7E 81 A8 82
 37 44 D4 B5 53 10 4A 83 6E 86 BE F5 0A BD 04 4F
 8D C4 F6 10 D8 37 BA E1 F1 CD E1 6C 39 ED 13 05
 32 20 11 82 AE 70 D2 98 28 7D E4 45 AF 89 9A 78
 89 2D 69 C1 69 90 DB 7E 8F 02 06 2E ED 39 3C 84
 18 0E 4F 02 6E 47 34 5B DE C9 E4 8D 01 A1 23 F0
 6F 93 B8 F0 1D C2 D7 48 82 58 5B F1 D1 53 E6 43
 60 20 13 62 AB 0B 5F EE 09 00 26 DD 3C 3D B6 24
 DA 7A E6 C6 B1 C2 C3 77 6F F0 47 59 1A 08 ED CE
 7E D4 8E 23 72 DE CB 36 9E 81 F8 90 47 1C 8C 95
 1A A7 44 C0 D2 82 4E E1 11 14 A5 3B 0A E4 3D 2C
 DC 3B C9 8F 13 AF F1 2F 43 6A 66 99 E1 37 9A 27
 19 D2 56 1F 64 C9 BB CE 7B C4 3E FD 41 42 7B C1
 4B 22 83 29 64 2F 8A CA 2D B8 A2 6F C5 05 00 E1
 1D EE 89 22 4D CE C7 27 27 D8 E7 09 F7 BF EF 7D
 8D A5 CD AE 7C 63 DD 26 74 86 96 03 19 AD E0 D4
 7F 21 97 60 71 53 01 D5 3E 6E BE 85 41 29 F0 DD
 1C 93 27 07 E3 36 19 4D AD 7F EF 40 5D 83 09 5C
 2A 6A CF E7 EF 10 04 98 4F 9A D2 62 A9 F8 FD 82
 C9 8C BD DB 22 32 10 1D 0D 85 CF 85 49 4C F4 2E
 2F 66 5B 4D A7 EC B9 A6 31 DD DA 51 9A 24 23 84
 D7 BC AE F8 C8 E3 1A F9 28 B3 23 14 D0 44 DF 75
 E7 50 7B A5 27 F0 1E 37 65 5A 42 41 FB 0A 66 14
 D5 05 BD E8 76 F8 C5 CE A8 40 02 E3 43 88 74 CC
 97 DD 28 1C 3C 21 61 90 E4 23 29 F4 4B 52 C4 9B
 36 92 7E A3 3D C9 E9 98 27 1F 1D 61 EA 99 39 58
 17 E2 56 D7 29 F7 D2 0A 24 06 AA 31 97 59 D0 E8
 92 54 F9 B7 A9 BB 60 9D 27 84 F3 E3 6F 8A F7 6B
 3F 54 54 5A ED E5 68 A4 50 5A 0E 12 80 79 72 BB
 5A 4A 63 35 33 14 82 A4 A6 56 29 46 8E E0 95 DD
 79 2C B4 EA EB 96 FA A5 8B CC BA 77 F2 2B 6F AC
 2C E3 5D CB CC 93 60 18 C9 98 46 4B F3 08 6C AA
 93 AD FF 6D 99 F4 81 33 62 B0 FF CD E2 35 BE 47
 50 5E B1 19 CD 18 CC A0 DB 15 D3 34 6D F9 F2 80
 AD 4F 45 41 2F 11 59 4E C0 EA FE 27 3E F5 A7 CA
 87 88 F6 58 B2 BE E8 01 A1 64 E0 42 09 B5 AC 67
 9B 5B 93 7B 53 55 17 74 2C AF CC A5 63 FC 60 B7
 36 2A C3 67 7B 9E 8D C1 D0 05 91 D4 27 A0 84 F9
 83 60 4E FF C6 78 4C D8 B7 E0 9D 17 43 C2 AE 7B
 AE E4 BE B2 E6 4A 06 76 B7 D8 B6 8B D4 65 27 77
 46 AE D0 63 CA 80 4A DC 9A D9 C1 CB 53 3B F8 47
 85 CB 25 45 58 E1 3D F6 05 FE 6A D8 BB B6 51 70
 86 06 88 2A 47 32 C0 5D 67 BE 73 D9 0C E1 6F E4
 4C 25 83 06 9E 1C B4 00 08 C6 43 B4 47 0D 68 D0
 0D 2C AD F4 04 96 65 61 61 B6 49 2F 7D F8 B1 BA
 B3 66 4F 14 76 8E C4 84 C6 0C 61 4D 78 33 1C 67
 B0 0C 3E B3 55 A0 A6 E8 DF 96 6E DB 02 4B F6 C2
 34 B4 CC EF C1 7A FD AD 25 10 A5 2C 05 E0 A6 51
 B8 A0 3E E3 2A B1 27 0D 0E 22 71 0E D1 A2 1B AA
 39 40 70 A0 A0 64 72 BB BF E9 88 32 CE 70 A8 95
 3A 66 8A E5 EF 33 FB FC 89 FA E5 54 BB A4 E5 98
 27 F1 8A 22 DD FE 05 E8 28 A2 DF EB EC CB 14 8A
 5D 7D CC 4A D0 A2 37 FB ED 9B 5E 27 8E 12 8B 7E
 99 5E D6 A4 AF 6D E6 10 9A 24 80 E1 A9 2C 4F 1E
 E3 6A 71 BC 37 22 3E 28 EC EF 22 7D 7E 23 6A 18
 18 2C 1A 0E 2B 00 28 26 4A 9B 3C 53 0A AA 25 1A
 D2 11 6C 46 B9 A7 3E 76 4B FB 52 8D C1 B8 DC 6D
 6E 5C 01 B4 CF FD 0A E2 91 12 F5 2B BE F0 8C 13
 3A 52 21 9A 7D 59 33 13 29 78 CF 71 B2 14 64 52
 51 FE FA 99 F5 C1 DF 46 A3 38 DB 9C 0F 57 23 8E
 FF 68 7B 63 ED 4F B7 63 17 84 69 80 1E 16 8A C9
 19 FE 11 50 93 65 7A 54 3A FB 9E 75 52 A7 F2 3E
 EE B2 D0 40 25 27 9D 98 1F F9 1B 48 EE A3 66 C5
 B7 B3 0A A8 66 DF 3D 2D 99 15 A7 6D A5 69 77 70
 A2 0E 13 82 12 52 E8 C5 E2 C6 A4 BA 71 83 7A 99
 17 0D DE C5 08 83 30 75 00 75 2A 95 19 89 90 6E
 26 1A 40 31 58 D5 A1 85 8A A0 50 7F 10 8B 04 EE
 6F 26 94 4C 53 01 F3 78 1A 3F A5 7C 04 5D 98 AC
 83 90 DA A5 CA D1 1C 16 07 FD 5E B1 FB A5 76 9B
 1C DF 4F 0A 30 4A 91 4B 69 41 84 A9 D5 C0 34 D2
 B2 95 FD 0D 81 80 EE 78 21 5B C8 07 C2 3F BE D7
 B3 B1 C3 90 3D 6A 7A 46 5D D0 22 02 95 B3 12 4B
 30 59 FB 2E 02 7A 64 5C 65 F2 C4 6B 8A 46 44 C2
 36 69 D4 71 43 B2 98 93 B3 D3 08 46 E3 30 63 33
 F9 93 85 26 2F EB B7 41 58 29 1D 5B 5C 9C F8 8A
 ED FE DD 13 27 3F D5 E2 E5 0A 65 5C 41 57 3C C0
 C7 1A 84 89 FF 73 64 53 50 4B B1 F9 73 51 2C 23
 B9 16 3D 4A 3F 36 29 2D 55 B6 79 B1 26 1C 35 A0
 07 70 AC 5F 64 0C AC 76 DB 39 96 10 73 EA 90 AC
 30 77 E6 38 6A 8E C6 78 66 CE F2 5D A9 C9 F1 72
 5E 9D CF 2B D3 D6 41 C5 CD B0 73 4A C8 7B 25 BF
 E2 C2 16 5A 2F D7 C4 24 E1 86 B8 91 A7 4F 31 79
 D7 14 42 A9 3A 75 E7 36 40 DE 3D 09 61 3F C1 13
 0C 11 50 17 29 65 DF F3 41 3D 1C 74 5E 03 46 FB
 EA CD 82 E0 56 2B 6E E9 F2 47 47 CE FB 19 77 7C
 C9 7C D1 1F 15 DB 3E CE C0 98 27 12 B1 94 B1 3B
 15 EF 49 3F BF B7 8F D0 BE A7 94 FB 29 55 0E CA
 B0 52 A4 4D 6C 9D AE A3 CD 20 63 E0 88 BD 0E AC
 A8 8A BA 7F E5 26 88 7C 86 59 5A D9 A3 35 62 87
 A0 C9 40 CF 10 35 3A 61 70 58 B9 55 16 08 46 9D
 B6 20 A0 59 61 D4 F0 5F 1F DC E5 98 66 40 34 F6
 B6 D9 DA 00 D2 5D 8F 26 F3 DA 51 F5 1E 62 A8 3D
 E7 C8 E6 76 B4 B6 65 55 4D 12 EA F3 07 0D 05 E0
 0F 8B 40 BC 51 AD C9 65 E1 7E 2E 01 7F AC D5 52
 20 B7 37 7C EE D2 20 1F 9C 50 7D 13 63 A9 B0 DF
 74 13 13 E5 0A BA DB FC 9F D0 CD 9D 0C 35 6B 92
 91 62 86 6B 16 6C 6F 41 13 13 F9 2C A1 6D 48 06
 0E 95 90 AF 55 00 26 7C 78 9D D0 F5 F4 89 C3 46
 06 F2 8E 87 F3 E9 6F 78 AF 78 22 01 47 0F EA 37
 B5 A3 3A D8 AA 20 09 B0 C0 5B 31 08 8D 20 E6 68
 4A D3 06 E6 DC BB F7 52 B9 B8 51 94 DF 73 21 F4
 85 89 71 52 08 0E 26 7F AA E2 C2 F2 EF CB 9C DA
 23 FB 89 2C 1E 0B 6F B0 0F 12 AE F5 5C DD 7E 5C
 12 D7 DC 0A 90 86 28 25 A8 CA 7D B8 B9 8D 2A 9A
 CF CF 3E 88 90 53 DB 1C EA B3 24 7C 1F 2C 0F 66
 83 63 00 34 95 6E BA E5 8B 22 25 C6 AC 4E 29 13
 68 EE 74 53 7F 35 2E BA A3 3B A9 A7 87 C8 C4 CC
 C1 8E 2E 7B B5 A1 44 33 A5 C2 19 83 6F D0 5B 59
 97 5B B8 E8 A0 18 E6 C4 80 9E 0F 41 9E E1 19 41
 D4 0C 21 D6 E1 D1 0B 1F 41 1A A1 DD 91 7E 3C 1C
 88 88 1D F2 3D BF 37 B6 DA 99 2C EB 69 34 27 66
 40 98 10 F9 A9 C9 43 40 DA 25 3D E0 F3 29 D5 97
 FB 88 15 28 43 9A 48 6D 4B B2 7B 8B 5A F6 AC B1
 88 31 87 19 80 C7 79 F2 E9 7F AD AD CF 49 FC F5
 C5 BF 04 6B 9B AE 55 87 52 74 E0 3C 56 3E 4F 4C
 EA 93 A9 58 3A A7 D0 6A A9 EE D2 F3 C9 BB A6 5B
 CE 49 61 EA C5 E1 E4 34 0A D8 31 9A 7D 6F 5C 61
 A5 A9 F4 E5 B4 7A 39 AF 40 26 46 4A F1 A2 2F 65
 40 8D 36 1D 88 7E 4A FB 19 DA E8 C8 A3 39 01 F6
 97 AC AE BB 4D D0 2E 8B 78 34 66 D3 22 96 2F 03
 BF CE E8 8E 83 89 E5 58 8B 29 46 F1 21 4B 9E 2E
 6A C2 D8 C7 47 BE C4 15 41 DA 62 CE 8C 6C 91 BA
 75 FD 08 92 A4 04 21 09 17 76 AD 63 45 47 99 90
 D0 BE 88 6F 5C 6B 6F 30 20 AA E1 AE 8C E7 DF 8D
 E3 2C 8A CD 12 BE 02 8A 28 04 90 84 79 F9 74 F8
 E9 88 0B 90 16 DC 80 D0 6E 08 E8 98 A8 F4 95 F7
 ED C2 F3 15 88 65 9E C2 CB 73 E9 FC 2D 7E 70 28
 53 40 E2 A4 71 98 0D B6 F0 A8 25 77 E6 5C 21 C8
 DE C9 C8 1A 3A 6E 0C AA DC 85 2D 76 18 B6 E3 EF
 35 16 F7 DD D3 AC 3E 97 3D E5 77 2A 6F 49 A4 44
 94 A4 7A 1C 28 2A 91 2B DA 9C 02 F0 E8 C8 36 E3
 5B 5B 7C 97 E2 13 31 E9 39 B4 05 2F BA 37 2D 59
 78 5E 1A 0E A1 F3 D9 C2 25 93 03 51 13 A1 58 DF
 E7 BA 4F D1 C7 84 98 FE AC 56 46 83 5F 6B 28 C5
 47 39 35 CC F3 F2 EA 44 4E 11 FC 0C 0D A7 A0 6A
 FB C5 94 03 82 20 26 56 9B F8 19 6B 95 B8 5C 01
 A4 CD 71 C2 88 01 16 2F F2 38 FE 86 77 B5 AF 28
 8F D7 C2 23 1B B3 FD 11 31 BD D8 9D 14 BA CE A0
 24 7D E6 31 52 39 35 32 9D B7 DB CB 8F 56 0F 99
 95 90 1F B1 11 F5 9F 82 E0 EB 58 92 9C DE 40 85
 5D 4B 5B 19 5C CE BF 88 42 09 4F 6B 58 F0 10 9D
 15 70 30 10 D2 5C 81 6B 2E 69 97 CD 7A 3E 53 E7
 A7 3A EF A9 45 45 5A BE 6E 10 E6 0A 96 74 72 C4
 29 D1 C4 E8 43 CF 2E 29 02 28 71 CB 3B 67 41 99
 0B 7C DC 1E DE 8E 8C C1 B8 22 E4 3E A1 52 FD 21
 28 F3 0C 33 85 45 54 2B 4A 68 52 8A 0C E9 0C BB
 69 9C B7 7F CE F3 6D 8A AA 54 19 76 44 88 8F 98
 3B 31 D9 47 11 8F E0 F7 5B EC FB 7C F1 FB 6A C2
 5B E2 25 7D 98 1C 51 81 EC 57 EE 9E 0D 18 79 D2
 64 8F 60 D4 D5 B4 65 17 5D 2F D7 4D 87 76 82 1A
 FE 14 21 DF 8E 92 80 1A 2C 96 28 69 5A 35 D2 D6
 BB DF 65 D7 E4 BE 8D 0E 0C 0F A9 8A 32 39 1E 5F
 A7 B1 7B 6B F3 87 84 2B 33 14 E4 3D 60 BD CA 6F
 55 0D A8 18 A0 7F 83 F9 02 71 9E 35 46 15 93 B4
 50 68 1E FB 07 E7 66 86 49 70 AB D5 7D 7B A4 66
 6C DB 39 1A 58 7E 26 0C C4 B9 EB BF C1 E6 BD BD
 CE C0 75 2E 6B FA 82 9F 85 71 A6 9D 81 B2 4B BF
 E0 4D 2A A1 0E E0 AA D6 EC 60 F3 74 55 74 A2 A6
 30 3D 4D 87 CE 89 95 9A 49 EF 76 81 79 23 5A F7
 FB 98 D2 08 2A EC E5 C3 3F B0 E9 5E FD 9E 7E B8
 F3 A5 8F 3A C8 7E 72 C4 EC BF B5 B8 C5 56 2B F9
 37 D4 B7 3A 2B BF 76 08 F6 FC EC F8 F5 11 D1 D6
 EE 84 B8 EE D8 56 AA 71 12 DF 8D E7 CF D2 A4 C5
 EC 91 4C AD B5 C1 5B B7 40 E5 D8 52 DF 71 61 99
 C7 84 29 28 F9 9E 74 3B 26 EC E6 02 9C 79 DA 01
 AC 43 3D 5C 33 05 1F 47 98 CB 54 14 C2 98 42 FD
 F5 B2 73 D1 AC E9 D2 EE 94 72 05 13 B6 4C A0 E0
 9D F7 19 6F 8D 7B 36 18 0E 38 7D E8 DF 0C F5 B3
 D3 73 4D 8C 8A 12 29 16 2B 6D 81 28 8C 31 42 DD
 D5 FD DD 5A 99 9D 00 2D 33 96 03 BB 0E 08 44 1C
 A8 A3 16 AA D6 8D DA 22 AC 4F EF 79 7C F6 56 97
 D9 0B 03 EB 37 8B C1 56 BC 4F FB 8E AE D0 A6 32
 12 B6 41 5D CC D2 D2 C6 EA 23 CF 12 4C A3 63 FA
 D1 30 C6 71 FC 5D 9F 0F 79 AF E3 B3 39 1E E3 A4
 DF 4E 9D 1B 9D 78 03 4D 7A 36 E5 D7 2D 35 7D AE
 EA 43 12 91 BC 1B B5 DE 0D E0 6D 0E A4 C2 63 95
 9C 3E D1 EF F8 A1 E7 20 A1 B2 8D 58 AB 33 D7 52
 6E 0F 4B 42 06 69 9B 23 DC F2 9D F4 61 80 6C 56
 B4 E6 CD 34 0D F6 3C 77 86 D8 41 FC 36 42 3F 29
 05 3C DB 61 8B 4F 5E 33 BB 7B 0C E6 B6 17 30 7D
 5C 1B 5E ED 0B DA 7C 78 43 BE 8E 6D 4E A9 23 26
 DA 4E C3 3B C3 43 11 6D 65 D8 40 1E BB 6A 70 BD
 35 76 98 BC EE A7 D8 C7 52 7C A5 0C 13 0F D4 DD
 38 FE 2B 37 EC B2 05 9E A1 95 73 6E 64 71 8E F1
 DF B6 D9 97 94 E0 D7 D8 4B 7C DE 5A DB 6D 21 69
 CB FD 20 DA 80 AB 7A FB D1 FB 47 49 B6 59 B4 0A
 FC 01 21 FA 1B 12 27 85 1E A7 12 4B 45 DB EA 5E
 AF 3C F1 10 59 24 98 7C C9 1D 90 F4 86 3C 7D D7
 3A A8 5C 86 67 6B 1A C9 A6 FB 7E 4E E6 E6 50 FE
 A0 4A E1 D1 4F 2C F7 5D 1B D4 A9 24 FB 6C 6C 72
 83 6E 76 D0 5E FF 8F AF A9 C5 D8 A2 3F 75 B9 31
 F5 E5 B4 E9 C7 AA D7 45 17 2E 63 C8 31 95 EB FD
 74 06 F0 FE 3D 51 39 04 F0 61 82 F1 AF 69 C5 F0
 8A 28 97 8A 66 58 F8 B2 7A 6C 71 05 86 43 36 C9
 48 1D A3 B8 70 7F 63 E4 44 F1 F2 D9 59 60 87 16
 98 E5 3E 75 C2 95 37 ED 27 16 53 09 64 BE 86 33
 EF 7F 0E 34 2E 03 5D 8A AF 8F D7 CE 65 81 BF 76
 B0 95 40 E9 FE 87 20 BB B5 3A F1 E0 76 8B C0 2A
 AC 2F A9 52 70 06 64 57 B8 26 A9 39 B3 EB 00 D5
 5F 70 B5 93 5D A2 61 CB 29 7A 8B 45 A0 1C 31 8F
 27 93 BF 41 C6 86 92 F7 02 A3 6C C4 71 C3 DF 3C
 9C BB E9 E3 3C A0 FD A6 21 D4 4E A4 81 AF F9 67
 F2 F4 CE 95 CD 7A 43 44 38 1F 73 31 F2 CE B2 D6
 C4 75 F5 44 97 E8 E4 11 08 47 91 C7 4F EF 85 9E
 A1 68 3C 6A 6B D0 37 DD 3F 4A 4D 84 1B B8 45 C4
 1A 69 9F 70 24 69 AA 5B D2 60 44 34 B5 F8 DF 5B
 3A 4A C6 AE 2D A3 DA 5F 20 81 39 16 26 F9 68 CA
 B2 6A A3 FC EF 1D B8 24 A9 46 B5 9E 8F F8 5F 9D
 EA EA DE 3E 03 74 B5 7E C8 BB 55 6E C3 71 82 8D
 02 11 3F DA 89 CB 03 E8 49 5A 5A 19 64 FC D5 EB
 2F E0 36 62 10 E8 9B 8B B3 0B CC B0 1A 66 AD 6F
 53 3D F8 43 73 EE EF A6 30 F4 D6 F0 A4 17 C1 FD
 09 33 F7 0D C7 52 DB 36 C8 FC E6 6C 93 CC AB 78
 AB F3 79 4A FF 2C 3A 59 61 C6 2A 46 B5 E0 41 AA
 12 43 F1 D7 B2 43 69 BE 65 50 83 F6 49 A0 9B A0
 C3 38 80 46 55 1A 8D 0B A4 0E 54 15 8B A7 BC EE
 72 41 60 5E F3 5A 27 F7 AF 91 1D 82 A2 CC 51 B1
 CA CF 3E 41 BC B6 FD 3A D7 EE 75 38 1F 27 8E 6C
 B8 D3 17 38 A7 56 53 46 1E 08 E7 A8 DD 00 FD 01
 E7 23 7B 9E D4 84 3E 51 58 68 97 4B F9 B2 7A 05
 43 14 58 4B B1 12 A0 D6 33 B9 21 CA 47 04 8A C7
 84 42 21 68 88 1A 83 70 6A 82 DA 4B 83 D3 BA D3
 91 71 68 34 6C 49 27 37 98 38 64 DC 1C D1 18 CF
 57 6D 57 B6 CB 43 E0 CC 5F B2 96 5A F5 66 B7 7A
 0C 94 E0 A4 61 EE D1 33 0E FA CF 20 D8 88 31 95
 83 FF F7 B1 34 2D EE 67 1B 47 B7 21 D9 EB E3 EC
 6C E3 A8 74 76 17 C2 DA 11 BD 5C 0F D9 97 B7 D2
 5C AC 0F 1F 50 93 5B 92 A7 93 14 2F C2 6A FD 2C
 87 E2 4B 58 17 A1 C7 DC 93 A4 04 93 20 6E 61 4A
 CF 01 21 AC 6D 76 98 40 91 F7 56 1D 63 72 B8 12
 EA 9D 20 6C 1C 11 DA DB 8F 77 55 83 FB BD 06 6A
 A8 A3 6E 20 15 E5 94 45 3E 9E 90 6A FB 5D 21 A5
 31 CF 7E 0F 09 6E 03 80 1C 8D 0C 55 88 0C CE C2
 2B 92 FE B9 FD 85 C9 9B 0B 52 D4 84 7A BF 18 3B
 D4 04 FC 52 34 DB B7 88 2F C0 BC AB 38 14 FE 17
 09 1D 72 58 0F 1D EC 81 40 5D F9 1F 9D C5 56 34
 3D C7 FC E6 8E 90 71 26 6F A6 EB 98 E7 23 57 04
 B7 8C FD 0C 93 08 4F A1 D7 EF BF 69 B1 ED 7E 40
 E8 B3 51 C8 CA EB 6E 2E 60 3C A1 E7 69 DC CA 18
 E2 54 F2 FA 32 F5 1E 8C 26 4D CE 1D 42 E5 ED 1A
 07 18 18 96 EF 2E 29 58 74 75 AA 8C 4B F3 12 EB
 2A 62 5A A8 3E 95 B0 23 FB 26 A7 2C C1 6B 56 3A
 A5 38 76 7E D7 48 04 A3 E7 29 01 A0 93 25 3C F4
 F3 E4 95 C5 B6 97 0F 99 88 9F C1 30 51 DC 20 A9
 54 B2 D3 B6 88 48 72 C3 C6 7A CD AA CA BA 4D 57
 A0 C0 8D 7A D4 B1 B7 AE 58 A0 9B 83 0C 32 D5 B6
 AA 7E B0 9C 7C 74 49 41 35 D7 32 80 5B AD 50 F9
 45 51 13 5C 36 D3 05 4B 2D 76 2E CF 32 F1 9E 96
 A8 34 21 9D E1 41 19 FA 06 40 58 AA 48 3A 94 4D
 D7 09 C5 30 5D 95 47 4A 48 F0 C5 7E 7B 54 2E 36
 C3 39 78 E7 D3 D3 6C B5 5E 18 9A A8 6D B9 66 72
 A4 10 0D 5A B8 C7 18 E7 32 F8 1B AA 2F 10 80 C1
 4D 1F 26 9A C4 21 C6 1E F1 62 9B F8 81 F0 21 0B
 46 AD 76 55 9D EF 1A B1 1D E2 4D 4D 17 06 3C 31
 5D E5 6E C0 F2 27 4D ED 75 07 7A 5A 57 10 50 54
 C1 C5 99 AA F6 FD CB 7C 95 D0 70 B9 3B 83 44 D2
 B3 46 BA 3E 5E 38 70 4C 5D A0 E8 0A BE B4 E2 02
 65 D0 F5 DB 50 D9 44 97 AC 80 4A 26 4F A7 9E 5C
 9D 36 C1 17 0B 3D 66 20 66 B8 8A 4E 1D FE 67 76
 69 00 98 AE 57 41 A2 CB F7 43 E6 F2 CD ED 69 EC
 B9 EC 5D A9 6B E3 75 A9 86 44 CE AF 03 26 6B 64
 3B AB 4E 6D 76 15 7D F7 87 47 96 79 7E B1 2D F8
 15 F2 95 1E A0 4B EA 18 72 6E 9B 65 0E 36 76 67
 B5 06 0D 7A 44 CC 87 F8 3F 56 BF 4A DC 99 06 22
 9B 9F 84 0A 3E 89 DD 33
* End 1179961258 3695159699