* LTspice Encrypted File
* 
* This encrypted file has been supplied by a 3rd
* party vendor that does not wish to publicize
* the technology used to implement this library.
* 
* Permission is granted to use this file for
* simulations but not to reverse engineer its
* contents.
* 
* Begin:
 C3 3D E2 49 0A 99 51 ED D4 84 7E 91 2A D1 2C 98
 B8 7C 18 B3 7D 3F FA AF A3 A5 DB 48 D7 35 AF F2
 F1 A2 3F B9 E7 EA DF 20 34 AF 86 72 F7 F2 94 C0
 4D 5B EB C7 5E 28 92 7E 08 BC A9 26 E5 29 81 15
 72 DF 0B 10 B2 54 1F 63 BE 08 5D 86 F4 73 AA B6
 AC F1 F1 16 4F 22 BE D6 82 57 D1 34 CC 96 0C F5
 0A 1F 6B EA F1 53 87 CB B4 99 F1 9B 47 C0 E9 D4
 A6 51 AA 88 50 74 48 BD 13 FE 8B E8 35 AC 4F 1D
 EB 19 1E AC C7 43 B3 D4 15 F4 F7 E8 5B 1F 26 0B
 95 ED CF 8F 8E 14 3B 60 B1 BF 86 BE C6 8F 56 87
 67 AE 78 E1 13 EE 9C DB B7 1F 67 26 F7 1D 71 A3
 05 AC 0F E4 01 53 81 B6 74 D6 94 4B 56 17 28 0E
 97 45 FB B7 6E E1 EC 9C 80 91 F7 D4 D7 2C FB 19
 09 FD 34 52 88 4E 1C EA D2 E7 A6 E3 3A CB F6 56
 F5 09 5C A7 67 1F 83 33 22 2C 3B 0B 68 E6 16 71
 C6 F8 20 55 60 7A EB 0D 1C ED 9E B3 CE 40 4B 3C
 DE AE F0 34 9C 80 52 4C 64 BF 42 FB 3B 30 9B 90
 61 66 1B 5A 6C 71 F0 99 77 D2 37 E5 1D 5C 25 16
 FA 14 36 82 C0 C2 28 92 C5 29 B9 FC 90 28 A8 8E
 2A 00 C8 8D 64 3E 88 A4 D8 11 0E 0D E6 EB E4 4D
 19 15 BF 97 CE 1E 69 6D C6 3F 3A B6 35 8D D4 8C
 7A 08 9C 86 05 AD F4 83 77 91 05 6B 06 5F 85 96
 3E F8 F2 36 6F 27 1B 0B 1E D6 88 62 8C 4F 8D 1C
 F5 B1 E1 53 0A C9 B2 8D 03 EE 6C 42 05 DB 75 CF
 81 7B E6 F8 E2 07 81 25 D2 14 1D ED E4 0A 15 D2
 47 93 11 D9 14 94 CC 04 14 9A 9C 24 86 EC 79 C5
 E7 E3 52 55 47 DA 8D CF 42 98 48 4A 3D 14 25 3A
 D0 9A 4F 81 DE 08 89 81 78 62 A4 61 C2 53 73 81
 C9 0E E3 2C FA 2E D4 A6 81 58 D8 C4 C2 03 88 47
 45 D1 46 CB E3 E4 13 05 92 F1 74 4B E5 2A 0E BD
 1C 0C E5 7A 4C 98 1E BB E3 BD 0F 29 1F 88 B4 6C
 67 A9 50 57 5B 2E 56 82 94 2B 0C 9D 30 05 8B A9
 0A 03 C0 E2 C8 16 53 9C 57 F6 23 A5 2D 4C D1 CC
 06 F2 17 66 C4 36 45 72 52 9F E1 87 9D E9 39 B9
 C9 C1 2E 83 2F DC 55 E4 41 29 67 38 B3 0B CB 78
 00 6E 86 E6 AB 6B E1 A0 44 F1 2A A7 3E A1 02 38
 A8 61 65 67 20 24 98 09 C9 34 5C CE 20 E5 E8 2D
 D7 4E 54 A9 15 38 89 EA 16 4D 9B AA 8F 61 41 70
 5F 34 A3 F4 BA 30 84 10 F6 0C 2E 97 14 D0 81 CD
 CD EB BA 57 1E 94 B4 2C 9B 79 C9 E9 67 95 FC 0D
 67 C1 FA E5 A1 FA 7C E7 1C 35 E7 01 81 60 59 E9
 2A 71 5D F7 C5 FF 9B 80 F1 98 F5 3C C2 55 6B 38
 C4 7E FE D7 9D 98 ED 5B E0 FB 2F 1C CA 34 8F 39
 0D B2 F8 57 03 9D 31 B0 EA DE B3 19 02 CF 7C D3
 E4 A8 D4 A4 E1 FD 71 8E C5 02 99 92 B3 64 C2 95
 FB 41 00 04 F0 CE F1 1E 6C A2 68 1E 00 F2 8C 6C
 0A 61 92 8F 40 E2 C1 AA 2A 01 91 1C D1 A2 F8 1B
 1F E9 93 57 AB 02 42 9A 6E C9 44 78 27 C3 A8 28
 32 64 20 FE 54 44 EF 53 F1 4C FF EC 51 CD E5 EB
 C5 94 77 5D 17 2C E1 FF 7B F3 33 B2 18 19 51 5C
 BE 53 89 DD 3A F3 1F 99 DF FD F4 7A DA 96 DB FB
 93 5E D8 FA 91 28 B0 C0 09 25 3C F5 15 54 53 D8
 80 38 02 D4 6E C7 1A 36 64 F9 31 71 C7 C0 09 92
 85 F0 3B 9E C4 2A AA 15 D3 87 4E 2A 57 BD 43 E7
 B1 F3 05 6D 11 CA E9 DF 3A 7E 10 88 D0 FA 2C AD
 95 3E CF 54 21 F8 05 0B 92 3F 0E 13 43 E8 59 97
 4C 22 24 9B 17 85 6F BB 76 1A A2 88 AA B9 95 AE
 62 73 02 F7 5D E8 E1 DA CF 26 A2 BC 25 ED 0E 3C
 07 55 6E 8D 24 28 BC B9 FC 0F 18 4A 65 BD 89 F9
 1F 13 4D 1B 1E 38 67 66 76 2E F9 C5 FF 1C 6F 1A
 D4 49 FA D7 B4 C7 C7 B5 F7 70 8E 52 AE 23 12 77
 40 3D 14 80 F7 FA 32 54 5C 00 19 81 B1 D6 B5 42
 A1 00 B5 44 A2 E2 62 B3 1B E9 8B AE A0 43 82 09
 84 9A 1C 30 5C 1F 96 73 52 55 69 53 51 DA 1A 92
 79 B3 86 09 ED E8 4C F4 9A B6 A0 B1 DF 4F CB 7D
 B2 C4 87 61 D7 C0 9A DE 21 0C 48 DE 02 26 40 B9
 2E 71 E2 86 48 7F 40 5B E5 70 D5 B7 7A 29 42 A8
 18 1F B9 CF AC 8C 3D 7E DE 81 70 9B 57 96 78 59
 37 75 FE 43 B6 9D 6D BF FA B7 F4 62 5D 11 CF A0
 20 81 5E C2 FB 18 BC 75 C1 C0 30 25 10 68 52 A6
 B2 52 AE F9 E3 AE D9 91 06 10 24 77 B3 90 75 60
 EA 9D 00 0F 0F 2E CA 66 57 50 8F 11 11 2D B4 F9
 EE 9B 53 41 76 B4 22 17 DC E1 DA 2F A2 E4 03 E5
 18 54 37 F2 BB F7 AF 38 09 6F A6 8E AD 27 27 45
 B4 AE B7 F5 39 25 F9 35 FC 6D BA 20 84 1B 14 6A
 84 3E 79 83 D1 BD BA 20 9D 6D 10 EC 46 73 81 97
 01 54 2C 95 FC 0B 40 1B 3B DD 83 63 E1 FF 2F 2C
 80 32 7C 2A 1B B0 D7 96 3E C5 77 6D 3D 59 3D FD
 24 4E 18 CF 84 B5 09 2F 95 17 07 45 55 97 AE DB
 F4 83 A2 6B 01 CE B7 87 0F 4E 8D FA 87 0F A4 4D
 9D 82 F3 98 67 75 4C E7 44 1D F2 67 1D BD B4 E4
 DB 70 12 C3 D8 CF 79 C4 5F 02 28 B7 B0 CC 3E 5B
 94 04 33 BD 1F 66 B9 8A B7 65 54 8E 20 E9 C3 E2
 38 D7 88 01 62 C4 A4 42 2E 33 6D AD E8 86 BB 36
 AB B4 B7 F2 15 44 0E 6A 88 B2 DF 86 DF D5 11 6A
 86 CF 82 54 05 38 9B 57 76 76 E2 2F 07 6B DD 02
 3E 58 5D C5 B2 54 CA 93 2C A8 4E F7 53 65 38 06
 91 0E BE 59 12 1F 00 78 07 26 FC 4D F4 96 2D 1D
 80 A7 64 9C B2 49 D3 5C 33 C2 15 1C 15 10 91 72
 67 BF E4 79 10 BC E1 27 51 42 92 11 A9 88 6D 30
 73 F7 84 3A C6 B8 E5 96 5B 70 4B BB 57 26 94 27
 C9 8A 87 02 8A 1B 9D 1D F2 65 65 DE 8B 8F 72 18
 5A 72 8A D2 95 8B CA 92 C0 78 41 2C 4F CF EA 03
 F1 66 B6 8C 55 83 87 6C 25 DF 10 B4 C5 C8 1B 61
 8B F2 C1 92 D4 B2 0C E4 E5 DF F2 E9 29 6E FB 6E
 D0 6A 99 77 28 4B F7 9F 04 5E A2 1E 38 39 09 EB
 54 44 40 4F FB BE F1 FE 82 EC 0A FA CA C0 84 5C
 0D 5E B8 86 69 2A 87 4E CF 59 36 F3 ED 64 68 62
 5F 00 D2 44 30 DA 45 B9 84 29 47 2D EA 0D 7E DE
 C6 E3 54 4E CD 8B 3A 74 07 B4 20 BD AA 22 D4 58
 35 58 97 E2 9B 33 9C 5A 54 40 4C 03 77 63 D4 31
 C9 14 1B 20 64 82 96 D2 10 09 4B AC 4A 30 C4 FD
 7A 8F F9 D6 A5 9E 9B 7F 55 5B 40 61 ED 5A A6 6D
 9E 84 E5 1D 0A 6D DE 0F 8A 13 13 0B 89 EC 1B 45
 85 06 9C 63 DA 4E AE AF 92 77 58 D6 E7 9F BB 6E
 9C B1 C7 7D 76 9D 6F F8 56 67 24 1D 0D B9 07 79
 F8 47 A9 B8 78 9A 97 AB EE 94 FC 21 66 B9 D9 AA
 E3 AB E8 D8 23 FF E0 93 C8 98 C0 F9 B3 5D 25 A6
 EB BD 51 89 CC 3E 07 AC 9B 06 43 AC F4 A8 2D BE
 5D 44 0C D7 18 A3 A3 B4 4E 59 93 E4 10 17 94 48
 19 2A 83 73 15 F2 8B B0 C2 15 E0 28 B3 D6 C3 67
 34 A5 0C 0B 9A 06 68 18 83 D8 70 FC 58 1F 55 27
 3E EC 77 D5 DA 4F CB 43 E1 CB 5D 76 DC CA 05 69
 1A 91 F1 D5 BA 75 94 FC 48 A2 73 AE FB 7D 5C 21
 D7 EE A0 4A 49 F7 B2 A7 4E D0 C3 E6 4E 0B 87 5E
 CD D5 25 D7 57 DB 50 1C F3 26 C7 77 0C 77 F0 2C
 BB 71 27 88 67 1A 87 DF DB E6 4D BC 45 67 99 AF
 C7 63 07 CB 99 BE 6F 83 14 33 70 E0 52 B0 43 2F
 F6 08 72 46 E4 19 B2 C6 C0 A5 EF 2D 52 04 85 51
 38 F5 52 FA 7F EE FB 92 DB 63 AD 97 95 FD F4 71
 D2 DD CE E0 2C 00 08 E6 54 12 96 E3 4E C8 84 52
 BB 12 1A E0 B2 0F C9 00 17 27 EC C3 1A 79 FE 74
 3E DF BE 63 71 16 19 9F BC 53 C0 A3 54 26 76 FF
 D5 C1 E4 55 71 83 18 8A 8E 81 44 88 23 DA EF 07
 07 53 0F 73 08 5F 4E 00 84 B0 C9 14 5A 2F 3C FC
 D4 CD EC D9 75 5D D0 9D 39 D0 AA BE 84 68 ED 32
 CC 77 1C C1 A4 33 FE C6 3F 2A 40 43 64 28 75 19
 4C EB CD 98 67 59 36 46 5E D4 68 57 D4 AC 0B C9
 AF 5E 25 FF EA 24 63 D4 53 56 51 3C 01 D7 5F 5B
 DC CA 25 8F 7A 04 E2 E9 9A BC 3F 92 AA 7A 8D CB
 3F D2 EC 99 12 B4 F0 3E 66 A5 7D 94 00 10 15 F3
 14 70 3F 15 CB EA 18 6F 8A 0D D5 F2 BA 3C 98 64
 88 57 4C 10 67 74 D1 94 E3 AA CA 6A 56 38 33 78
 1E 44 84 5B D7 69 A7 15 AC D0 FA 6D 73 2D 06 60
 1B 6C 4E E0 27 D1 44 51 E6 57 D7 3A DB DB A3 68
 8C 85 9C BB 6B 21 38 7C 92 9D 76 BD C8 7C 5F 9C
 49 2A F4 A0 55 0E A5 97 E6 B8 03 2F 5A AE 09 3F
 2B 84 38 D9 33 4C E0 39 1D 8A 25 C4 52 58 FF 50
 BC CB 8E 2A 68 1D B4 8C 85 42 C1 D2 7E 33 25 AA
 36 4D DE D1 E9 36 19 4F 4F A4 D1 A7 47 CA 56 66
 54 C0 98 93 79 F5 6A 22 33 55 F5 76 5A 8F 13 8F
 8E F1 B2 6C FD CC 30 0D 2F 92 08 7B F4 A5 1B 33
 70 C9 EB E0 0F 7B 4B 46 F6 78 54 E0 1E 3F CF 5B
 3E B7 2B 28 9B 68 DD 56 3A 6C C5 03 F9 6E 7F 3E
 86 5A 68 20 2A 60 2E 0C FE 4B 9D 16 A1 D0 10 F4
 98 AC 74 7F BC 8A 71 01 51 BE 16 01 13 AA 43 DC
 5F F9 B7 03 BD 2C 5D E1 60 13 B0 71 07 40 2C 8C
 6B 4F 81 A5 3B 28 F5 1B 75 D7 C3 7B 40 C2 02 B4
 53 B6 4A 1A 4C 2C F7 DD 46 62 84 E9 B0 53 CA 36
 1C 99 1D 8B 0E E1 A1 F3 DF 84 D1 FF 86 23 C7 8E
 38 EC 1E DA 4B FE C4 3C 61 10 BB AD B6 2E C8 ED
 67 B9 6A EA EF A0 A8 FF DF F1 63 D3 F3 81 1C F2
 84 FA 5B 2E 16 DB D5 7C EB 30 9D 4B 3C 03 14 D1
 26 0D 1B 89 55 34 5E 16 D7 31 7E 34 02 12 8B 78
 8C DA 75 E5 67 7A 22 7C 84 F1 C4 57 15 88 3E 26
 42 7B DD 78 DF 43 F4 27 9E 87 E3 88 23 16 D5 8D
 55 7A CC 43 42 19 26 F4 33 E7 6D 4A B1 A2 76 77
 57 FC 68 07 CA 7B FA 2B 37 00 A9 5D CB 23 8C FB
 A6 B9 61 9C C4 6B 95 35 7E 6A 1D A3 E2 20 D7 FA
 FF 62 61 36 1C B9 D1 FF 79 0E 4E 11 9D 39 AD 15
 44 9F 0A D2 D8 19 5C 8B 4B 2B 1A CD BB A5 45 92
 A2 D0 80 CB 2D 49 CE 41 7C 4A C5 92 16 40 FB EA
 DD A3 2F 3E 0C FD F7 99 22 A7 27 64 B6 20 CB 37
 6F 5B 2B 4E 3B 93 04 50 14 2F 3E F7 A8 6C 76 39
 50 74 13 8D 91 34 1B 62 45 54 52 0B 01 2C 58 2E
 DC C7 46 CD DF B8 FC 03 89 EA E2 0C B9 0D 5D FC
 DB A9 90 DB 55 C1 47 47 A1 62 F9 BF 0E 64 CB CB
 26 D1 38 C8 83 56 90 B9 27 C2 60 AD EB 3D 17 B7
 4A 61 82 9F 6D 6F EC B7 58 46 BC E7 3B 75 67 4B
 2C E1 E1 6A 8E 20 1D DA FD 16 E2 F6 BF 5F 38 E2
 A9 C2 F1 71 04 8C 60 39 5C C5 28 70 65 4E AB A0
 9A F6 31 AF 08 E3 E7 B5 46 50 B5 B6 1D 2F 07 21
 B0 EF 35 9C A6 E9 63 5B 28 8C 17 A4 68 B6 E9 98
 4F FE A4 C1 4B A5 8B 78 53 33 AD 40 C6 1C BA B0
 C2 46 76 E5 A4 05 EE A7 9D 05 F9 3A 89 C8 F8 AE
 A6 DD C7 26 5C 1C 02 93 41 AF 7C 85 38 BF 81 D9
 59 77 4B 6B 8E 5B 97 91 DC 25 C9 36 F3 2E D4 B2
 09 25 52 BB C1 84 21 D0 22 30 9A 0D C0 C0 26 D0
 71 76 24 09 CE A3 EE DB 1F 5D 99 55 E3 BE 7A D7
 2F B2 A8 4C 26 0E A9 90 EA C0 23 7C 8B 33 6D 67
 94 3B A0 72 F9 AB 9C 94 4E 93 4D 70 1A 3F 87 4F
 EB D3 A4 7E 33 0A 58 34 94 58 56 0F 49 BF F8 F7
 5A 29 96 B5 F2 A4 6F D3 38 6F 4F FA 82 2F 3D 11
 78 21 1A 7B 8F B3 31 D6 F3 3E 64 F8 27 06 90 47
 12 3D 3F 85 99 58 C0 9B CD 8D 3C E9 A0 D8 87 CE
 3A 0E 30 80 50 4B C3 E5 85 B8 78 61 7E 9A BA 10
 D0 76 5A B9 76 97 05 7C 85 31 0B E3 6A 9A F0 4C
 6D 64 0E C0 1B 8B 58 C9 DD CE 71 E5 48 EA 7F E7
 BF F5 7B 24 47 EC B5 67 8D AA F7 5F 6D 86 10 3D
 FE A2 FD D1 3A 71 34 E5 E4 6E E9 E1 4D 8A 68 30
 D8 AF ED 22 62 FC DD 1D 28 DA 64 3B 75 E5 14 F0
 DB E8 FF E4 6C 36 66 41 B1 54 B1 63 66 2B BA 45
 A0 A6 3D 6D 2A C0 90 04 43 E8 F8 D3 D0 47 F5 2F
 C5 1E 05 C0 AF 5A 19 F4 0B 4C 16 53 63 BC 13 C4
 E6 4D 7A 16 42 52 AC 3C E8 B6 85 C9 83 4E 45 22
 30 2A 89 A2 7B 49 B9 11 C6 E1 96 5A 22 BB 64 FA
 3E F3 80 BF 02 9F 09 FB 22 74 96 26 09 96 F8 78
 34 19 CF 97 53 99 3D 60 D4 91 0E 6A 8A BB 0F 65
 9D 4D B3 D0 DF 60 1D 5C 05 BF C1 F9 83 50 42 ED
 71 2F 2F 4B 29 FF FD 52 D1 FB 4B 94 86 F6 1D FE
 0E BB 28 83 0A E0 9C 43 93 81 2D A5 F9 0E 52 AF
 F3 B4 70 88 20 22 EB F2 8F 73 28 C4 46 29 01 8B
 1B 85 90 47 37 B2 79 41 5E 6A 1B 10 61 7F 70 36
 75 26 92 BD 9E 42 DA 88 0D 1E A4 6E 98 88 B8 D3
 FE E3 F3 E6 A6 37 6F 41 22 88 F5 2C DC EB A8 07
 3C 62 A8 08 4C BB BC 88 E4 A0 91 13 1C AE C3 EF
 86 95 45 C7 C7 66 F4 01 98 7A 48 C4 BB D1 5E CF
 B6 11 20 EE 85 70 93 91 8C E4 0D A2 BF FD CB CC
 B6 8C 87 4D 43 53 A1 B3 B3 49 D1 65 92 84 C0 9D
 8E 25 3D 41 85 F7 99 B8 05 98 FF C2 74 D6 85 02
 9B 47 FE A9 B4 8C AD 86 70 45 85 7E 67 6D 66 23
 25 BC 31 93 E3 65 62 CA D2 AE E4 58 A5 8D 9E 6C
 07 40 05 5F 21 3C 37 54 6C 45 AB A1 05 B1 6E 64
 B0 26 F7 C9 D4 9B 3D 0F 39 45 C5 EB F1 68 32 83
 8D 8F FF D2 62 69 4A 58 0A FA 8A 89 09 D2 20 43
 DB 49 E9 FB 8A 93 4B CE 7F 75 54 92 D8 AC C0 7A
 A3 2D D1 39 89 ED 19 06 24 D7 43 6A F6 C1 FD 1C
 F9 CC 93 F0 81 3E 03 86 F2 AE F6 07 E2 DA 1F EE
 5E A0 26 35 81 5E 7D 42 EC 74 2B 56 D3 66 F0 E8
 25 05 8E A8 89 FC 13 00 6C BA 77 5E ED BF 46 EC
 C8 5E 71 A0 BB 8A A3 36 9C 0E 0A CB EF 97 32 5C
 EA 7F E4 43 EF D5 6D 7F AB 47 B7 85 E9 2B A5 F7
 DD 7F 60 36 3E EE 05 61 9B 04 11 C5 99 D0 0C 6B
 9B B0 5D 64 3E 65 64 35 70 6C 54 AD 53 E1 87 20
 4A 51 06 80 52 EA 59 F2 D8 40 08 15 27 0E 98 D0
 14 B3 2B EB 36 28 A3 16 0A C9 0C 3B 6C 84 9B BB
 6B DC E4 E0 9C C6 9D 6C 5F 6D 4B A2 B9 F5 56 FE
 FA 75 4E 8D 53 0A 93 16 3C 02 43 8C A4 27 98 FA
 76 C0 3C 20 A2 C4 2F 95 33 22 0B 95 90 FA 04 58
 B0 4C E4 5F 8F A7 4B 9A 7A 85 E1 17 E2 1C 05 4B
 91 E1 F3 27 C9 1A 5D CB 6E 94 1D 67 93 68 C5 40
 A7 B1 68 B1 7F 4D 0E 9F 53 17 09 48 BB 65 99 BC
 65 69 D8 F9 B6 BA F6 9B 46 BE C7 17 24 97 62 DF
 3E 55 65 14 41 BC 27 7D F1 4D 18 E0 78 E1 CF 3A
 E6 F1 61 11 56 3B 29 01 35 BC DC C5 11 1E B7 48
 FA 98 1A 1C B4 F4 45 01 E7 BE 23 59 6A 36 DD 52
 5B 7D 07 67 87 7D F1 0F 19 D5 1D FE CB 0F FE AB
 DB 4B 70 D2 4E BB 3D 21 A9 E6 B3 1F F9 97 B6 84
 08 5E 0D 1B B1 F4 26 51 8B 40 1C 0A 44 6A 5D 32
 66 AF B7 E2 F1 F5 D7 E6 BA A5 41 84 10 35 B0 9D
 56 2B C8 D8 65 3B 38 C7 E4 38 4B AF A0 26 B2 41
 EA 52 A8 D7 FA E4 64 35 02 79 5C FD D9 5F 25 B5
 F6 E0 1D A4 4F EF 33 F4 35 B7 1C 77 EC 1D BB D1
 F1 59 74 B3 3C 43 1F 80 80 4B 37 03 C9 FF A6 70
 F2 71 C9 11 C7 28 C2 B6 92 2F 17 1E 8D 20 68 55
 03 FA C2 A4 2D AF E7 D6 8B 94 70 C9 B9 7F AA 06
 C1 85 34 75 CD B3 3D 94 32 3E EE 4E 67 4C B3 2E
 E1 26 09 CE F8 77 C7 78 51 4C BC 28 94 6A 87 69
 45 D0 3C 84 A0 AF D9 FE 02 1F A2 1A 3F 36 64 20
 89 72 57 80 C5 3E 38 DB F6 5E 39 D1 6E 29 D4 83
 8A C7 C3 7F 2C BE 06 40 24 EB 8B A3 0E 8C A1 4B
 37 8D 67 6C 07 01 FD 68 23 CC 9A CE 6E E9 34 78
 15 2D 32 0C 4D B8 39 5F 8A B8 4D 10 8F 3D 92 6A
 F2 F0 C7 A3 AD D4 BF E0 9E C7 CF C5 A1 A9 13 90
 66 16 22 F3 A0 21 DE 1C D6 61 A0 89 C4 39 62 D9
 5C 72 E9 B7 C0 41 9D 53 73 49 E1 1D 61 84 D4 CD
 41 11 CC FC 0F D5 0B 17 D8 C6 84 F0 93 B9 E7 89
 13 93 19 AC F8 F1 B4 B2 1B 58 F0 6E 9D 4D 39 B2
 52 E8 52 F1 8B 63 0A 38 3D E7 6A B8 D5 75 2A 00
 BE E6 56 6D DC 04 1A 8D 40 75 16 19 24 3B 46 B9
 8D FF 73 D8 E8 27 BC 7A 8F 35 A2 85 56 1D CB 4A
 0D C7 6E 67 4C 2D 24 67 1E F1 C8 11 A5 24 96 64
 6C 8F E8 11 02 46 6F CE 62 33 87 13 60 BA 6D 8A
 41 34 20 9B B8 12 1B FA D8 A6 7C 81 B6 B9 75 67
 EC 26 23 8F BF 4C 8D F4 BD D7 5B FB 41 0B 5E 0A
 0F F9 DC A7 55 8C 2F E4 12 77 4E 73 03 F8 B6 2A
 E3 BB 86 A9 DD B5 9C FE 72 10 EF F4 1A A9 ED 8F
 5D FD CD 6D C6 9C 30 7B 3F BF 90 1C 27 7C AD 2C
 CD DE 89 99 A2 DA 00 F3 0F 9A DE 34 9C B9 19 DF
 53 61 B0 FF A3 9B 16 53 99 7F F2 4F D5 8D A6 F4
 2D 9A 2D 78 F8 A9 9E EA 93 4B 2D 01 3E CB E2 EE
 C4 F9 0D 13 75 51 BE 10 7C A6 CF 20 C0 44 BA BA
 DA 7F 76 DE 1C 66 C9 30 3B F8 9F 1C 57 C0 3C 0F
 5A 98 BC FF BD 6D 1D D5 76 AE F0 5A F1 0D 34 EC
 F2 13 EE 0E 77 26 4E 96 CA 24 48 F9 77 96 1D 37
 2A 0E 68 1B 17 46 6E F4 55 21 1E 3E 38 0B 78 EF
 2B 5C 65 FD 40 F8 5C DB 96 1D E8 3A 8E 44 60 16
 AF BF 11 56 24 33 F9 91 69 B7 79 2F E2 66 0A 9C
 07 2E 20 6D D5 AA 09 26 F6 F4 36 F5 0B E8 3C 8B
 09 43 5F 45 8D 2D D0 CF F1 DA 18 1F 12 EC E9 F4
 65 80 2F 7F B2 5F D2 E1 F3 9B 18 13 C9 5D 03 F1
 23 7B 29 EF F8 24 EE 58 8E F8 4E AA 64 7F 78 4E
 C3 33 38 41 B7 6F AA FA 9A B8 E1 B9 CF A7 BD 38
 5E 33 8B 5F 24 45 1C 54 96 04 B3 C0 04 4C BD 9F
 4A 75 B8 7F A4 CF D2 E6 26 F9 1E 40 15 C3 50 69
 03 4E 01 A8 C5 2F 59 B2 76 13 A5 D2 73 AF C5 6B
 56 D0 35 B7 5E 0B C8 FF 59 29 17 F6 48 14 46 E0
 F7 08 68 F9 A7 8D FF D5 A5 10 1A 48 00 18 C6 CA
 14 33 57 B9 9B 32 3E 5D BF 8D 56 9B 51 CB 9C 88
 66 1F B3 D5 93 7A 16 40 46 74 C5 06 0A B6 45 9E
 70 08 AF 9D 64 6F 94 A9 31 2B 72 56 DB 13 7A A3
 CD 79 C1 B7 9E BB A4 27 29 D7 C5 C1 98 B8 A7 8B
 74 CF 96 B8 8B 54 0C BC 35 31 72 3E 90 0D 0C 3F
 24 8C D2 3B 90 33 C3 CF C7 3B 1E 7F 04 74 0E 98
 89 00 6D 48 1D 34 C7 D3 04 C1 50 70 B0 4C 4B E3
 03 53 AF 7E B0 DE D9 55 9C C2 23 D0 7F AE 3F AC
 DE 82 C5 43 12 99 DB 6C 40 EB 4C BC 70 A8 6A 6D
 FE 9E 6C DE 35 D6 27 6F 56 11 FA 33 EA 40 8C 24
 E4 7C 46 0B 59 65 CC 64 AC A3 C9 5B 21 DF EE B7
 54 65 40 64 31 7D 6B E7 BF DD E7 5D 5E 9D DB 2C
 76 7A F3 FC E7 AF FA 61 99 31 C7 56 B4 89 D5 2B
 51 0F 05 F8 04 06 A1 73 4E 99 92 B4 FB B0 4A 72
 95 25 3F B1 19 CC 74 8A 68 85 E4 DE B3 21 D0 BF
 68 05 22 BC 61 69 0A 3D E1 FA ED E2 FF 56 8D 55
 35 67 9D CA 77 73 9D E5 59 E0 5B 2E D8 88 88 14
 93 78 64 6F F6 3B 35 F0 40 3E FE E7 15 1F BD 31
 46 A9 05 0A 79 38 C5 02 E7 CB 05 B9 4A 8D FA 89
 A6 29 60 2B 7E EF 49 0C 6A 29 FD A8 79 04 D3 77
 06 2B 30 99 05 C4 41 8C B9 1D 22 0B DB 71 7F 02
 83 71 74 D4 8B F3 86 CA 2A C8 7F CE 0D 65 E1 26
 56 94 CE CC 7E FA F5 FA 69 E2 62 C2 BD DF 6C 08
 84 C6 B7 A6 5C C7 46 80 CD 9D 6C 52 45 71 FB BA
 3E F5 5B F9 4B 10 19 00 58 9D E1 96 00 89 5B 6E
 C7 1B E8 C3 20 8E CD 0B 66 E4 80 C2 D4 DF 6A 51
 AC 94 34 B0 49 46 85 B8 27 83 1E B8 64 FB B7 90
 89 9C D3 A1 65 75 49 1A 66 36 2D 3F F8 B0 92 92
 EE 4F 62 D0 E2 B7 DF 38 41 4B DD A3 3D BF D7 81
 54 55 8A C4 9C 24 A2 CE CA 4C F3 C3 6B EE 83 AE
 F7 BE F4 F0 D9 F1 0C 3F 09 63 8C 99 2A 39 F8 4A
 24 C9 0D 3D AE DC 8A 22 EF 1B 1E 2A 0D 70 08 7A
 12 0E C1 D7 44 4A 64 85 B2 B0 8D D1 86 BA 13 28
 1A D5 4A 13 F7 75 04 28 27 F5 00 44 6A EA E3 88
 28 77 3F CC D4 27 25 5D 8A 6F 5A 90 D6 62 6A 4A
 AC 90 02 04 25 37 BD 4F 70 81 91 0F F8 F4 DC 7B
 F6 C0 3F B8 1E DF C7 EC 4C 21 F2 C8 63 9E E0 5D
 BA B3 0C 6B 08 8D 65 52 68 F2 5F E4 03 7B B6 4A
 26 7B 74 57 F6 64 AC 11 1A A5 F5 45 2E 39 C9 D0
 15 C2 FA 73 04 FA E0 28 DC B6 61 B7 DA 29 7A 19
 2A 73 A9 A4 08 A6 9F 52 51 E7 3F 7C 0E A8 3B D0
 4A 21 D9 3E 93 37 5B 3E EA 97 BE BD 35 0F E4 D2
 3A E4 B1 42 F7 E6 A2 44 7B D8 CB EE 7C C7 A2 65
 CE 2B 93 86 4D B4 0C 1D F2 FC B7 3C 48 27 2B 43
 28 C3 28 FA F0 15 17 49 B8 90 FB 2C B3 27 D7 1F
 55 E0 73 E1 E8 37 A7 3F 4F 00 C8 1A 8E 05 84 61
 9A C6 1C 6A F0 A6 D7 D7 E6 C7 F3 A4 72 60 B1 54
 56 34 98 66 B1 73 F4 FC 5A D0 C3 97 AD 99 EE A7
 16 1D 90 09 77 B9 C6 24 72 C2 4D 24 DC D4 5D 27
 90 54 DB BE A4 FD 57 C1 37 98 F5 AE 4B 43 81 A5
 6F 34 1B DF 64 5A E0 79 9A 2B 8D 0E 76 26 7F 4A
 D7 EA 8C 4A 3A 6B A9 70 C5 32 02 C9 DB 86 3C 72
 85 2A E5 59 BE D2 5F 84 24 CB E9 3E 3F 76 B4 9C
 66 58 A2 49 88 6C F5 A9 14 51 0D EF 3D 1F 79 65
 67 17 5C FA 9F 74 3F E6 64 CF 73 D5 E0 D2 7B EA
 F8 E7 A7 CE F3 F5 E6 94 72 62 DF 12 12 02 1C 7C
 64 01 F6 75 9E 23 28 92 E5 38 65 61 40 5B 50 49
 67 1E 25 8D 27 35 65 3F 7F 9C D4 25 88 A2 62 2E
 16 72 E4 E9 CF BC A5 EC 3C 8E 1F A2 C4 9E 18 58
 8E 29 47 64 8C AE 77 24 46 D4 16 5D 0F 7B CB 82
 0B 59 91 27 3E C1 AB A3 D1 B3 CC C0 36 2C 2E F4
 95 23 6F E0 54 12 BA CB B6 01 A2 58 00 79 C9 8D
 8A F8 69 AD 07 31 BC 7F D9 AE 6F 29 D0 29 88 E2
 B0 22 C3 FE C3 2A EA 2E F3 E6 3F 54 CB 16 C8 4D
 D2 1D C7 32 96 F7 CF 14 B0 05 22 6F 33 9F EB 8E
 FB D8 DD 82 3B 60 10 6A C4 E9 83 63 DD F5 31 02
 0B 9C DC 13 D2 54 F2 52 84 59 41 EA 49 FA 79 32
 00 82 45 CA E6 B1 49 5E 86 4F 4C CC E0 5D 9B 60
 30 AF 22 BF 01 62 47 84 01 B1 81 8C DF 78 1B B7
 05 A9 67 AF 90 B0 DA E7 37 04 C4 CA 25 A6 39 4F
 84 61 9C 7A F4 34 46 18 1B 14 C6 3A 8B 0C 53 CD
 AF 32 45 97 B8 08 DC 28 62 25 C0 4B 19 DE A2 51
 3F 9F B1 2A 25 3D E8 F9 62 8D 21 11 2E C6 87 58
 74 2B 53 12 FA 82 6B 70 76 B2 E3 63 F3 F2 70 1E
 F9 DE E4 FF B2 6C CE 16 38 24 F9 F0 79 4E CF 7A
 D6 6B 8E 0C 85 1B C0 98 90 2F A8 BB 77 13 18 AC
 F0 7F 5A 42 3F 31 F4 8E 86 9A AA 43 0E 49 CD 2F
 F2 0D 2F 0F F3 6F 04 20 54 C3 CA 84 39 9E 8C 41
 AB 8B AD A8 9E 48 B3 E4 5E 26 95 A6 84 3A B5 95
 E9 A3 C2 FA 37 41 48 0A F1 2F D8 A4 E4 7D 64 09
 69 1C 4F D2 15 22 04 EE 5F 9B 9E B7 67 60 BE 24
 5C 02 B0 0C 8D 07 C0 6E 36 E5 B2 79 62 75 D3 2C
 88 E4 DE 34 CE 01 EF 42 D1 CB 8B BF 2C 4F 6C 6E
 E0 A6 BE 7F D5 38 9F F1 EB DE 50 87 49 6D 53 DD
 5E 6C 04 B1 8F 92 99 68 27 9E 84 8F 5A 64 63 C5
 3E F2 32 EE 0E B7 0E 4B 01 41 62 B7 CD E4 3B 4A
 CA AA C8 A7 0D 5B 4F 9E 95 5D CD A1 F4 29 96 0A
 99 F5 A2 D8 17 18 80 0F C6 62 E9 8A C7 80 C7 D3
 8A 82 FD D8 A2 48 22 DE DC 9E 9C D5 3E A9 11 61
 30 1B 87 93 7A 2E 56 6F DD 3B 97 32 BA 92 E0 8E
 8C A4 66 8A 84 48 0E 38 55 B6 BF 84 E0 1D 74 85
 E7 9E 0C 89 B6 06 53 F7 C4 2E BC 5C 6D 64 A5 8A
 FF 22 F1 31 0F A3 F7 DA 44 88 C1 A6 AC 91 A9 72
 F1 51 67 5D 2E C3 D4 EE 12 B7 2B EA 73 12 93 83
 8C C4 CB DE A6 2C FB 5B A2 38 76 2D 83 E1 AF 80
 A6 C1 67 8F FE 4E 42 60 34 92 B0 89 54 6C 56 EB
 00 AE 9E 60 F1 27 FD 48 E2 96 C2 82 80 58 8D 27
 79 C1 EB 2E 7B A3 46 75 88 30 F8 C3 2F 7A A5 97
 20 EE 96 A4 6B 9C B1 94 25 45 A6 C3 83 9D F7 90
 F4 B6 08 7A 57 A5 F5 1C 5F DE 61 F8 E3 43 0F 39
 93 9E DB 44 17 37 4E 84 E8 00 46 BE 97 3C 3B 20
* End 1618522420 270361133