* LTspice Encrypted File
* 
* This encrypted file has been supplied by a 3rd
* party vendor that does not wish to publicize
* the technology used to implement this library.
* 
* Permission is granted to use this file for
* simulations but not to reverse engineer its
* contents.
* 
* Begin:
 5E F2 5E 0A 51 06 67 C7 C3 EE 56 09 47 D4 F3 12
 AE 12 7E 27 9B 53 5D DC F3 80 BB B1 E7 1D C7 E1
 82 FD 4C 13 B5 17 B8 EF 76 E0 2B D2 F5 9A 0B D2
 2A 02 EC 55 1F 47 A8 06 11 3F 8B B2 AC 7C B7 4F
 CC 36 99 E6 0E 2A 97 9B 55 33 7E 65 23 4E 9A FC
 A9 19 02 BC F9 FE BB B2 7E 0A 34 FE 06 35 52 E6
 5F 46 0F 59 01 07 6C 5B D2 82 C7 61 14 EB B9 33
 E9 7C 9C BA 63 29 5A F4 FB 11 50 8E E8 52 68 85
 CF 22 A0 A8 E8 33 BC FB 49 52 5F 0D F5 38 AF 4F
 59 FF 97 47 18 D5 03 B8 76 0F D2 1E 2A 6E E2 EC
 00 FA D3 81 1E 6A F2 D9 F3 7D C1 BC D3 D1 34 89
 59 1D 33 76 9D 43 FB FD 77 1C FA C0 6A 0B 0E 39
 42 CF 60 EF C6 15 B9 3F AA B5 96 38 6D D2 57 33
 31 43 80 DA BE C0 23 8E E8 94 91 44 9A 84 EC BC
 E4 FD 1B CB B8 A5 7D D5 17 A2 66 3F 47 FB 77 5B
 38 C6 3F E3 31 09 C6 66 97 61 24 D6 4F 70 1E 14
 D3 8D CF 8F 5D CC 53 E5 F0 9C AB 0C 12 F7 15 2F
 D1 2A 84 72 B8 9E 08 70 84 E7 A5 E0 E5 54 8A 0F
 E2 EE 14 05 EC D2 98 22 B2 66 7F 31 21 79 4C B6
 1B BE 87 B9 E4 5B 99 A8 53 86 64 E9 C0 17 7E D3
 61 C9 64 3D 6A A2 B8 E0 6B 52 93 F6 DD 03 8A 48
 1D AA 4D 31 92 6D F5 CE 6C 26 EF 7B 7D 4B 05 FC
 45 14 54 58 E8 A9 28 69 61 E0 4C 58 09 2F B2 F1
 3E A7 55 8C 4C 36 73 5B C8 73 D4 D1 CA 70 E0 82
 B3 CC 15 8B 85 B5 1C 72 90 73 45 72 96 04 A0 5D
 56 30 18 96 59 8F 30 97 AC D7 48 64 07 2C 86 1F
 1C 95 05 23 23 62 CF ED A3 75 DB 65 69 18 B1 D1
 0B 31 C5 B5 FC DA 51 F6 D9 A8 F3 B7 BC 51 CF F3
 04 AD 11 A0 8A 3A 81 08 58 7B 53 9E 01 52 C1 D1
 77 F9 92 C1 CE E4 2D 6D F9 EE E6 EF 2D 33 10 76
 AA 57 B1 D3 83 E6 E9 4E A2 AF 38 D5 0D E3 5D DB
 E5 DF AE 00 39 1C B0 03 BB 96 82 4D D0 88 05 9D
 0F FC B2 BE 1D DD 93 37 F9 4E 68 02 BC C8 CF DF
 B7 8A D5 95 49 63 1E 1E E0 38 ED 51 04 B2 7E 7C
 C1 94 F8 9F 22 F1 9B 79 9D DC DC 09 8C 19 5B B9
 8E 4A D3 69 77 33 7B 34 FB 47 CC 22 FA 1C 96 13
 BB 5C 09 7C B4 E7 72 64 F3 52 22 E7 1C E2 ED 62
 B6 9F E9 58 AE D7 6B 2F E1 66 25 13 0C 4E EA 8E
 23 EC 02 8B 7F 2F 97 D7 F0 D4 98 A8 7F 04 14 22
 FC 90 76 89 1F 40 12 0E 0F 0B 45 69 E6 57 D2 9A
 81 CD DE 7C DB C1 F3 95 B2 AD EF 10 C0 C6 D4 40
 D2 90 7F B9 6A F6 77 74 FE 9C C4 FA 5A 1D 00 A6
 C0 B5 0F 3D 41 94 F9 3E EC 24 7B 8C 0C 22 53 AE
 A6 BF 39 C5 05 93 6C 1A 44 0A 53 8A 05 94 75 6A
 EE 91 B1 21 A7 55 64 2B 3C B0 CD 68 BF 7F 2F C2
 CA 3E C3 6F 0C 0B AC C4 13 E4 4D E8 43 D4 09 5C
 09 08 C0 9F 78 35 5C 3C 9D F7 A0 EC 70 FB 0B 9F
 0B CB 10 8A 57 B1 9E 3B DF 76 5C 1F D2 A8 12 A6
 73 23 21 28 B0 C5 F9 86 B2 F8 98 11 CA C5 57 67
 09 D1 1F B4 BB BE 1E 20 9C 76 37 97 B4 16 ED D1
 36 E7 FB A6 AE 52 F7 D7 28 71 69 55 F4 83 84 AC
 96 F2 5A D6 3F 8E CB E3 4D D5 1A 6D 9D 47 1B F1
 4D 32 8C 56 FD 6F D0 20 BC B2 25 87 19 3A EF 14
 6B 1F 20 C0 B7 04 37 FF BC B4 1F 02 BA 92 25 C2
 7C C4 B5 3C 20 23 55 15 86 F7 D0 BE 13 64 35 A9
 B0 FF 92 08 55 3F 90 A0 64 C9 7E 53 B8 20 BE 8C
 25 0F 50 4A DA 77 8E 0F 0F 31 5E F1 46 25 6B 39
 D3 BA 47 7F C3 F7 66 33 9F D3 4E E7 5B 79 7F 1B
 12 0E 60 98 C8 3F 1E 58 C5 72 42 A9 3A 2F A8 42
 6D BC 73 45 D4 2E 79 4B 76 15 06 B6 16 D0 EB DE
 7C 64 4A B0 27 70 A7 96 EF F2 B7 18 84 F0 DD BB
 7E AA 26 2A 8D E8 04 EF E7 3E 71 4E B8 3E 25 6E
 91 27 3F 4E 11 4C FE 94 CE F9 69 C2 58 ED 9E 55
 6D 38 8B 2F 31 A4 0A 74 22 FF 82 76 B7 C7 2A 0A
 5A 43 7C 20 95 AB C7 87 3A A7 D5 A2 7B 71 9E 61
 97 F7 47 9D A8 8A AD A3 C9 AF 97 DC 76 76 9D 81
 F2 6B 35 ED DF 26 1B F4 FB B6 03 99 E9 23 B5 FE
 68 C0 84 AD C3 1E 7E F9 2B 78 D7 31 AE 33 04 61
 85 A3 1B 0D BD 77 4E 33 94 F3 9A 2B 98 1E 06 B9
 99 A6 C2 F4 07 60 A1 A8 D3 61 79 85 B6 E7 FE 5A
 4A 83 3A 76 10 5C 8B D7 C1 DD C8 39 23 17 85 5E
 34 07 EF 2E 10 88 2C E8 DB CB B4 8A 10 B9 74 69
 5E E7 AF 6A 5A DE B5 B6 43 8E 90 A9 1D 54 AF 6A
 6E E6 2A CF 65 6A 19 EA EC 8F B6 5B E4 BB CF B8
 65 FD C6 F4 F2 F0 F4 04 6C D5 7F E5 10 A5 7F FC
 91 ED 06 57 61 19 10 A0 01 B1 A1 9C E1 73 2C B2
 16 86 31 21 E7 DC 80 2F 2E 19 DD 6E 80 09 4A FA
 6B 19 0C 94 0A 3A 9C C7 89 3C D8 F8 DD D0 21 A0
 0D 5E FA 55 A1 84 55 69 35 8B 0C DF 82 1F 00 5F
 7B 34 1C DE 3D 14 7D 1D B6 95 9F 35 71 70 49 DB
 0B FD 57 D5 F5 0C 37 90 48 3E 36 CF 8F F8 54 96
 86 BA 0A C0 12 EE B4 CD A0 E0 06 45 71 A6 AB CF
 31 4E EB 3F EF 56 52 F8 FC E3 4D 44 77 26 13 31
 31 37 EE F7 6F 7A 6D 02 13 6B 2F CE DD 2D CA AF
 D3 AF FC 69 4C 93 9E 2E 39 2C 69 AF 23 E6 1F 29
 1F 00 A5 2B 7B C4 A4 D4 E4 90 DC AD 48 28 8D 87
 2E 40 BD E2 27 3F EE E5 23 94 41 E9 53 A0 5D B9
 5D 1C A7 39 65 C1 68 24 00 1F A0 3F FE 8A 86 C8
 3F 33 77 03 99 6E D6 69 7E 50 D3 3A 36 75 E6 E6
 62 69 72 C2 B9 CD 4A 6D 76 45 58 18 51 33 2E 82
 6C BF 11 C0 22 82 CE 83 2F A5 6D 3D 3B 4D 2F C7
 58 B2 10 A8 8A 9C 34 30 E3 06 15 D4 17 A7 CF 62
 D9 F4 1B 99 9C 7B 32 17 4D D2 35 C1 7D 25 E0 FB
 7D BF 3D BB 1D 60 C2 CB 01 41 57 3B 43 A0 26 1D
 47 38 3B 00 45 FA D7 2A 2E 55 1A 20 A2 59 AD 51
 85 2B 24 AC 2B 52 EF 1A 19 23 DD 78 0F 78 48 CF
 6F F2 20 E7 C1 2B ED 70 3A A7 90 2B BD 69 A9 49
 D7 20 24 64 2F 0A D0 42 4B C0 97 5C 9F B2 D1 0A
 AC 68 99 8E D5 F1 55 51 1A 93 61 E0 73 90 42 06
 96 4B 20 66 07 68 8F A2 FC 1B 9D 94 6E B1 FA 0E
 76 BE 7A 9C A4 B5 E6 EF 2B 1C AE 14 87 EF 5F 40
 CB 22 55 08 01 89 79 EB 49 D1 E4 28 5A AA F7 4A
 34 A5 69 EA A6 20 B5 CF 5F A6 4C 82 B3 86 21 CE
 76 E0 85 B2 52 5F A3 6A 8C 22 64 8A 05 3D 3C 87
 A7 44 98 43 7B 4F 48 87 70 BE 57 EE 8C DF B6 14
 CB CE 99 2A 64 AA 3C 43 77 33 CF CF BD 69 93 9D
 A3 95 1C ED C3 49 95 56 7A F1 BE 6C 49 0F DE 5E
 EB F0 B3 77 0D B7 CE FC 5B FF 0E DC DD FF 02 E6
 7F 85 48 17 C3 94 44 70 4D AD 0D 8C AF FF 2D 5C
 1F B0 0C 85 2D 95 D6 8D 69 19 36 F6 11 67 BD B8
 07 C2 39 59 A0 AA 33 79 6D 6C DC 48 66 B1 89 AE
 03 43 5C 77 29 4C 4C 28 5A 58 ED 78 73 A9 E6 A6
 6E 77 45 38 97 73 03 B3 6C BF 41 42 2A EB 78 F1
 5D ED AA 19 26 F6 CC 62 DE 49 76 49 44 8C 46 C5
 7C 47 21 18 2C 0B 43 AF F0 03 22 02 6A 36 BE B5
 50 0A B8 FF 1F A7 9F F7 70 78 9D 76 52 8A 06 7C
 63 83 3F 8E 3D FF 58 37 DB 40 CA 66 1F 95 2A 1C
 25 87 6A B8 DC 10 E3 C0 32 F2 26 64 26 EF E2 BE
 96 A9 C2 3A 79 F3 F0 03 2A 7E B3 CE F1 E1 BC 0C
 90 B2 6C CA 9C B1 C1 87 49 F5 E8 05 3C 75 D2 F4
 AE 96 9A 29 AA 16 B7 90 63 AC AC 21 58 16 46 5D
 40 61 A0 03 4E E9 7E A9 D3 91 2C 29 17 26 27 E7
 69 7D 8E 9B 30 94 0B 4F D5 55 E2 B4 93 F5 A8 E9
 03 46 BC 6A C5 C7 10 4E 68 83 8D 36 EE A3 01 10
 7A B1 58 27 A8 39 69 94 40 A9 BA 19 75 84 0B 8C
 9D 45 5D 72 4C 07 EA 4C 47 6D A9 3A 28 1A B3 00
 15 C5 E5 06 28 FD D0 98 E8 E6 B9 FD 8F 8F C0 82
 BF DE DE 22 02 A7 25 FA B8 ED F8 5F 4B 64 23 76
 68 FA 3B 89 2A 21 1D DA E9 77 DF AE BF 01 99 FE
 B9 5F 5C 54 1D 3E 47 9B 12 B5 16 70 B0 CF EE 73
 7B 05 82 25 0A 0E EA 67 89 30 6A 14 21 CA 0A 47
 8F 6A 64 B1 9F 4C 8F FB D2 A7 FC E2 35 28 16 80
 80 9E 75 F3 60 96 D5 74 74 79 64 8A 65 D1 EB BB
 0E 11 63 A0 73 66 4E 37 3F B7 A0 C3 AF 96 3A B8
 5F E9 0B 80 B8 F1 93 75 B4 12 FF D3 17 C7 D9 2A
 0C AB 51 33 C4 67 8D 2A 4D 7B 4A D7 0B C9 66 00
 8C 51 99 78 65 32 DC 08 B6 BC 76 BD 74 DF DC D7
 3F D6 C9 A9 37 E9 6E 11 4E B4 0C 2D 96 A9 FC 6D
 43 2E B7 52 B3 5E 43 CA E0 FF A4 93 95 09 58 C4
 04 0B 5B A3 D3 CA 2B A6 73 B1 D3 07 BB 21 6C 4A
 B6 A3 CF 8A 56 7A D8 3B 0D 7A 03 85 4F 00 BB 7C
 74 04 EE CB 61 4B 80 54 F8 6F E5 B8 0D 6B A9 70
 8E 2F AC 2C 02 53 1B 7C 96 54 A5 09 18 CC 60 FA
 A2 7D CD B6 DD 28 C1 D2 14 36 0C 0C F9 34 80 96
 66 20 AE 44 81 26 5F 6A 67 A2 68 1D 95 E2 3C 21
 43 1B F7 30 52 C7 53 33 E3 4C 7D 87 2F 46 B8 58
 27 60 4C 52 38 14 2A A0 7E 25 7A EE 08 5F 08 CE
 08 BB 90 CE B7 E8 21 84 45 B7 20 86 D4 DC B5 B4
 C8 B9 98 34 27 E6 C5 BC 2D 90 9C 09 47 1C B1 46
 C4 36 32 A9 54 7A 1D 32 76 6E 00 9A 8B 37 03 42
 78 15 22 99 90 49 C3 5C EF 09 05 4A EF EB 18 9A
 41 7E 69 71 77 82 47 8E 0D 04 8A E0 8C 42 89 01
 D2 2C 79 DC 56 BB 3C F0 75 C0 ED 8F F6 9C AE E7
 68 08 7B 84 69 22 68 5F D5 00 4E 43 C4 01 09 ED
 52 C3 CB 9A 94 6D 4D CE EE 24 A6 5A EF 19 47 D3
 F9 9A 27 E4 CE 51 B0 B5 DD 26 74 7A 69 9C 03 09
 47 49 9E FA 2A A3 39 6E 6B B8 97 8F A6 28 C2 34
 BC DB F7 AA B5 DA 12 61 1C CB D0 D1 91 F1 8C 68
 09 6D B7 4C F2 BA 53 96 33 C9 2B F4 D4 86 C7 D4
 BA B2 53 DB 93 89 0E 96 D2 6D B8 8D 6F 8E 86 85
 67 FA 98 E1 4E 3C F9 2E 65 85 24 06 97 AF 6F 0F
 0B 44 C7 35 FC 8E CE D9 BB 2E AA 5E 13 39 5E 3B
 99 45 0F 62 05 DA 0E E0 EB C7 28 59 B0 B8 EC C8
 D0 62 05 62 31 C7 00 0A D5 B9 06 5F 33 B7 DC 53
 4E 06 59 08 1F 45 B6 71 FB 14 90 FC F9 9C 4A 0E
 A5 35 9D 8D BE 08 A0 81 6C F9 88 5A C5 76 7D E8
 FF 58 EE CD F2 27 00 61 26 54 66 94 E9 C4 B9 87
 61 F8 80 BF FE 9D F5 CB CF 0E 9F 95 13 A3 97 3F
 FF E7 A7 23 9F 9D 6C DF 72 6B A0 CE E9 60 FB AC
 5E B9 A3 3B 5D B9 6E EE 82 7B D7 D5 30 5B F0 75
 C0 A4 F5 CA FB B5 1E D5 FA 8E 40 E4 21 14 13 23
 74 EB 2C F7 DF 88 12 B3 75 71 E0 A3 0A 13 53 59
 26 4E 7D B7 B6 7C BA AE DC 5F C7 A3 C4 E3 2D B4
 F1 5A BF 9C 10 2B D0 9C 8F BB C2 A7 90 BD A5 5C
 A6 BB 4A CC DE 7A 31 93 6F 27 5F 5F 55 F1 84 83
 6F DF EC 65 49 21 19 9A 1E DB 68 04 1E 30 21 B7
 18 EE 6C CD 27 58 42 96 DB EC 37 F7 A4 B0 95 C5
 81 7E 1A D5 EC CC 50 14 50 98 4D 66 F8 BB 8F 48
 C3 66 C6 6A 86 B0 16 6B 98 0D A0 13 EF 12 7F 35
 EB 29 D6 74 8F A6 C4 3D 5C 87 05 68 11 6C 86 1E
 B8 B9 61 DA 02 58 EB 8C FA AC 23 0C 03 E9 A4 C9
 9C 40 C5 6E 0B 16 16 47 1F CA 0B 8E 14 83 60 E6
 8E 52 8A 10 9E E9 A3 68 15 B5 A4 08 A6 A8 EF 3A
 DD EF FE 52 3C 5A 82 B9 E8 21 35 D5 43 4C 85 50
 9B B2 5B B8 CD CC A8 FB 6F 29 91 D6 21 22 5B 33
 41 65 22 A6 18 A6 DA C9 C1 2A A8 50 91 DC EE D5
 F7 A7 79 CD 25 4B DE B0 9E 48 94 1C D6 FC 91 BF
 8A 98 E5 99 94 83 4E CB 20 A6 45 43 D9 33 77 C9
 48 8D 28 AA 7B 24 11 69 C4 FE 57 A8 CC 59 E7 C9
 DF B5 91 5A 93 23 8A 02 35 1E 42 C0 10 1D 9B C4
 91 41 EC 89 84 DE B9 DC 02 FF 6C 6D A4 59 42 8D
 EF 3E 4A 87 0B 61 43 AB 04 5F E9 59 40 28 17 E6
 7C 06 60 DF B0 87 5E C9 35 92 6B 57 C8 1E D8 A6
 EE 16 A0 10 B2 89 D4 04 D3 4E E8 09 D9 E2 AA 2C
 85 3D AB 02 E0 48 17 C3 02 B5 FC 10 FB 61 14 71
 80 E9 19 C3 06 4B 74 DE 7A 4A 22 0C BD F9 E2 16
 2F 8F B3 1F 52 90 D5 E0 F0 5D 1D 5C 0D C6 DE 5C
 DB 64 EA 85 9A C4 EE 8E 37 AF B0 41 B4 9C 9D 5B
 F0 14 87 44 1D CE 98 C5 BC 1A 18 A6 71 E1 66 7F
 CB 56 7C 63 6B 60 99 E1 24 2F B5 F9 82 15 6E 9D
 6B F6 C3 36 A6 84 EC C1 64 25 92 5E C9 F1 71 C2
 83 59 2C 9D 4A 46 07 E7 37 FE FE 45 40 50 60 5C
 2D 52 A1 F4 48 6F BA D0 59 47 44 2C A7 6B 8F C5
 B7 ED 0B 94 6F B5 F3 16 7A 23 80 DD F8 98 0B FD
 28 66 C0 46 7F 70 B5 3B B9 B4 D8 CD 3E 4C 74 C8
 5A C1 72 68 DB C5 13 86 B0 1C 32 3E 9B CA 13 48
 DE 1A FE B0 3F 5A B3 8C 12 D1 C9 3F E3 84 CF 4B
 6B 14 A7 02 4F 06 E4 81 0A 10 BD 40 37 6A 8C 8F
 A2 51 C5 AA 7D C1 32 95 DB 36 26 7F 4F 3A 35 36
 88 F7 82 5F 08 F7 D6 A2 F8 46 60 E1 55 28 5C 73
 A4 A3 A0 E7 9F E9 65 72 FF C2 BA 0E 73 D7 3E 51
 B6 87 EC FF 82 2F FB BC 97 73 FE 9E 4F 3F 56 19
 63 F1 85 6A DB AB 03 3B E0 74 96 76 EF E3 24 61
 CA 6A B7 49 86 83 AB 83 97 F5 65 D2 86 46 B5 F1
 50 36 D1 90 14 79 40 4E F5 4F 68 6A 39 8B 2B D7
 17 D2 1B B6 8A B6 AC 63 A9 7C C2 CE DB 9D 41 B2
 70 B9 06 97 1D 8D FC B2 D1 DF 09 E4 9D 21 B6 6C
 47 C9 DE 41 CC 90 34 DE 04 1D 5D 56 8A 6B B9 26
 6E 1A 48 E7 D3 FF FF FF 49 AD 62 73 E8 05 30 8A
 0D FF F0 DD B4 C7 7F B0 D5 17 7C 9B AB F4 DF 52
 19 E8 14 48 64 3E 2F A8 9A A9 45 02 A2 E2 AD BD
 42 36 48 D3 53 EB 24 DC 32 D0 B3 4A 47 F6 2E 4E
 0B FC 62 E5 B9 60 1F F8 EC A6 BB 5D E1 80 A5 FF
 99 BC 59 C7 5C DC E8 2D 05 EA 4D 8F B5 73 B4 98
 6E D8 BA BD DD 43 67 29 CE 48 7F 64 AA AA 4F F3
 01 4D A0 D5 06 23 30 98 23 3C 64 46 B5 0A 2B 42
 36 CB 8A 78 77 9B B2 ED 90 E2 AF DB 0E CD F7 51
 A4 F6 AC D9 4F E2 B6 3D 70 33 B9 A4 9D DE DE 0D
 3A 0F 98 C0 95 64 52 70 AB 84 70 F7 35 20 7B 59
 A1 33 02 3C CC C8 24 A1 E5 15 48 06 30 B4 1C 35
 C4 14 76 52 93 40 EA EF DF 62 53 95 F8 71 6B C0
 02 3A 3D 99 42 93 73 1C 26 1E DA CE AC 3F 7B FC
 BE 75 03 DA 06 8F D3 C1 52 5E BE F3 26 E9 B0 E3
 AB 11 EF C1 6B 7B E3 F9 35 95 C2 FA 71 11 12 8E
 10 19 67 D8 C5 6B 1D FA 84 17 EF B8 4B 5C B9 B9
 49 7A BF 45 59 62 A7 6A EA C6 D9 48 C1 E9 67 2B
 DC 39 CE 4A 4B 77 AD 4E 91 71 28 AE C9 B5 CB 3E
 57 0D 98 97 3B 60 57 BB 38 D2 CD 89 32 D3 C8 83
 7A FD 58 84 B1 C1 2B 01 BB 18 C4 0D D9 61 05 C0
 2A 95 07 97 8F 54 1C 90 21 BC 82 DD 6B 5F D0 08
 2D F3 90 97 8D 60 24 65 51 ED DC 49 1C 20 9D 7B
 01 42 F9 DA 4B 27 7B 12 52 B5 57 BD 57 20 B7 2B
 D6 78 C7 26 CE 8C D3 FD AA 40 D9 8B 04 AF D5 D4
 16 6B BF 3F A8 63 66 4B 87 A4 F3 E8 25 83 C3 9A
 0E 36 80 B5 62 E1 C2 5C 9D 69 E7 6B CD 53 E2 F3
 0C 38 FE D3 37 26 6C 05 0B F1 83 47 06 AF 98 B2
 EA BC 81 95 CB 94 27 75 56 00 64 75 42 C4 A0 49
 4D F9 3D 90 ED 41 E8 4E 21 68 66 C5 16 2C EC F6
 9F 03 F0 2F 47 0D A1 81 B1 AE E7 5B DE AB F1 23
 5D 0E 52 E7 D5 79 3F 32 7D D6 F4 57 DF 14 6D 95
 C3 67 98 64 81 0C BF E5 98 AA 83 74 41 78 4F DB
 B9 F2 9D 40 40 30 C6 B6 FC 3E B8 43 CE 2D FC D3
 C2 2D 06 C4 E1 7A 28 ED 9A A3 54 18 C4 3D 5A 12
 F3 B0 4C 2B 25 2C D9 09 95 E6 CD 31 DE F0 B4 DD
 8E 1F 61 C1 91 E2 B0 26 6F F2 9A FD BC A8 27 39
 74 82 B6 0C 75 A9 EF 28 B7 B9 F4 48 7B 3E 1A 37
 5E 6B 20 AB 0A AD 0E 6A B6 A2 C6 B2 93 77 E5 DC
 FB F2 62 A2 FA FC 39 76 65 56 90 BF 03 2D 9C F2
 17 FC B7 CE 7F CC F2 A6 CE 3B 1C 1B A2 AB 83 44
 C4 6B 8C 92 17 DB E4 B3 FE BF B1 83 92 4E FA 2F
 41 8B 04 27 66 33 76 28 E7 69 27 58 EE A1 89 FE
 06 E1 A4 8E 25 B9 5A E6 E0 DD A8 10 5A AB 64 BF
 6C A2 AB 3F EE 66 EC F0 7D 96 AD 39 FA F7 65 10
 90 DB A5 F6 14 B2 67 8F D8 1B 6E A7 11 DD EC 21
 51 52 7C 51 C5 1E 84 FA 87 FD 89 AE 59 B8 8B 42
 B1 9D D3 4C 1F D6 88 09 1F F0 62 90 98 B1 17 D1
 81 69 0A 6F 1B CF C2 51 23 FF FF D8 50 02 F1 8B
 C5 AE 3C 5D C3 80 4B E4 37 41 A2 C5 BB 7B 10 3D
 54 64 2D 3A EF 11 DF E7 8F 98 4E 7A A2 57 9A 36
 F3 26 98 49 85 E5 BC AB 44 20 4D 9C 4E 61 AA 56
 76 DB 6D 69 39 A5 3D 5C 29 5C 77 E1 59 9B 98 5A
 74 92 E7 B9 B1 8C 67 52 05 FC 52 A3 1B 4C 60 82
 6F 6B 9B 08 36 45 56 DF A9 AA 71 73 1A D8 37 A9
 20 76 19 28 E7 C1 2B AE E9 84 1F FF B5 64 C2 76
 3A 32 6F A6 B9 06 EB 39 CB 34 B0 C7 C6 3C B7 E4
 9B 6E 51 F8 76 9A 4B 05 08 DC 2D 26 67 74 83 25
 14 66 BD 24 D0 78 25 BA D8 B5 FA 38 88 B2 16 95
 D4 0B C5 20 1F F1 CA 84 C1 F3 81 17 57 46 48 F3
 EB 0A 86 EA EF 6B 3B 1C 4B ED 70 90 4A 24 5F 70
 AB 57 2A A7 58 93 B0 54 19 87 00 38 41 8E 8E A8
 8C 97 BD 0C 7C FB 49 8A E9 C2 16 AB 8B 5C CB 03
 1A BA E4 7A 2C 49 F1 44 97 9C 37 5E F2 75 C3 2C
 8E 60 BE 48 63 0E AD E7 07 E2 48 2B B4 92 0F 4E
 89 AF 4C 83 6B CD 5C 2E 3A FC AB 55 C8 31 16 6E
 63 DC A5 26 87 B0 64 F4 29 1B F9 38 94 28 FD 20
 31 A6 49 A2 5D 7B 1B 5D AD 8A 6F 83 67 E4 EC 6F
 6E B9 38 6C A0 EC A7 47 0A 00 CB BD 9D 9C 5C 05
 2A 22 88 58 A1 DD 60 06 5F 81 90 25 72 08 C5 BA
 26 1E 88 EA 7B B3 3B 27 55 E6 3F ED F3 5C 87 5E
 D3 16 BA A3 C0 15 3B E5 CD 0A E0 75 AE 0C 36 6B
 14 9D FC E3 53 59 DD 56 36 50 83 6F BC 2C CE DD
 B2 23 20 D4 90 1A A1 14 E5 4E 0B 90 1C FB 7F 52
 16 A3 D5 7B EF E7 DE C8 E1 E5 89 EA F6 34 E3 F1
 21 18 D5 C1 76 B3 AD 6F 9A A1 A9 50 D5 00 59 CD
 5D FA 24 A2 A6 0A 9A 7E C4 E9 25 95 14 B7 90 8D
 5D BB 73 88 CE B0 42 A4 75 6F 0B 82 CD 56 A2 BA
 6B 2E 79 B0 CC 6D C1 D9 62 E5 4E 5A 77 97 48 25
 C6 31 E7 2E F3 90 2E 4E 1D F5 F6 DA 21 92 F7 87
 A5 A3 D7 C4 87 11 31 A3 DE 95 1E 01 59 A1 70 8B
 DC D0 37 39 1B 03 D5 D5 3E 47 8F 7E 1E EB 30 36
 11 0E E9 BB 62 34 A0 D4 04 C1 39 38 D1 21 CF 86
 5B D8 FF 27 2D 08 35 6A 46 53 71 06 56 04 6A 49
 85 08 08 FE 51 85 2C D6 32 6B 69 F5 2D A5 C5 C7
 D6 1F 23 68 B9 43 89 FC 6C 11 87 CF 2F AB 45 5C
 C0 65 ED A2 9C A0 CA 7A 44 7D FA 4D 49 8A AE DE
 9E 3F AD F8 A2 83 81 A1 08 58 ED 69 D1 2F 52 D9
 37 F4 B5 99 38 AF 0F 9D 37 E9 04 9D 23 5C 31 3C
 24 5F 0B 73 5E 2D F5 39 3D D7 DD A0 E8 E6 24 0B
 88 90 2C D4 A5 A9 7F 09 71 F6 15 D4 7B 85 7C 19
 DE 8F 79 CA E5 8B CE 1B F1 9C D4 E9 B0 B6 FA 93
 BB A5 0B EE 53 BC 08 9D 0B AB 35 10 50 19 36 3B
 67 72 0B 2D AA FA 07 38 76 6C 03 68 31 D3 FE 52
 9E 6C C0 1A 5E B3 CF 75 FC 90 38 F1 77 8E 29 05
 A3 1F 30 2C 42 90 5A 20 C7 4E 54 AA 29 EB 8B 54
 03 38 AF 91 41 91 33 36 69 B2 06 EE 34 F7 A0 19
 91 B2 84 C2 80 0C 00 61 08 AD 8C 5F 2A 83 8D BD
 6A 91 38 5A 75 99 1C B6 4A 45 83 32 9B 63 E9 2D
 0C 4E 85 C1 06 B1 31 0B 71 3D 1B 37 22 8C 0F DF
 A7 85 17 10 F2 59 E4 25 8A 62 2A FD CE BE 0D 05
 87 E9 89 07 21 EF A9 33 E4 05 BD 6C 16 54 2D 2D
 CD F4 56 17 99 47 B2 FF C9 94 A3 E9 2D 48 0F 38
 CA CF E6 C7 E4 D3 16 7D 05 A5 6E 8E 26 DD A3 C5
 4C 03 CE 05 5A 14 0D B2 B6 6B B0 94 6D 48 3B 5D
 FF DC 3C 2D 50 24 7C 2D BB 6A DE EB 09 1C BF 14
 27 CB D9 52 06 E1 E6 A3 88 EA 84 BF AD 08 40 7E
 77 8B 97 C8 7F D2 82 A3 CF 71 DD 0F 93 32 33 DC
 CF CC 80 C5 57 08 48 EA B3 B2 8F 32 33 E4 BD 2F
 72 67 82 33 FC 67 E3 4B BD 7C C0 5F 99 6D D3 A7
 0B A5 5A 5B 4F F7 F0 0A FD D3 07 25 3D F6 7A 9B
 4E 77 63 CB 7D 88 08 5A 28 4F A5 5C 6D 66 FC 98
 9B 50 66 07 34 D7 F6 2B A7 31 93 38 FF AC 4E 63
 96 15 38 A2 DB 05 58 00 67 1C 11 63 8E FA F2 F7
 ED 13 0B 00 00 0C 7C FD 3A B8 BC 39 71 A9 2F 09
 CC 33 D2 BB E6 DD D8 F2 C5 F9 A9 2E 4D 52 64 C8
 A5 4D 14 AE 6A EB 20 A6 00 19 8A 05 16 9F B6 7F
 24 FF 5F 88 B2 AE E8 92 8B 04 6D 0C 62 FC 4A 85
 43 11 DE A0 97 17 3E DA EA 1B 6D 3D C2 F0 F8 44
 1E 24 1C F7 14 9B 60 23 A6 B8 B7 69 AD D0 F2 E4
 C6 8E 18 AA 17 B4 41 B2 1A 16 AF 73 38 98 DF CF
 62 AC 04 ED 16 FE 0B 7A 4F 4A B5 0A 48 A9 AC 5A
 57 B6 96 13 35 04 69 E0 EA 6D 55 C9 43 45 6E 71
 0F 1B B2 D8 2F 90 BF 64 D7 A7 DF 17 61 58 CB 98
 32 10 E0 95 8C BF C9 0E 6D 01 E0 D1 1B 8E FA 7A
 02 A6 A8 11 75 0C 04 5E 96 55 C6 6C 4B 25 1D 3C
 9F F4 D2 90 A2 EA BF E0 0F 74 10 B6 12 81 77 B4
 7D 81 6A 2A 41 E8 99 5E 1C AD C8 90 BC 44 1D 9C
 0B C4 75 31 06 26 FD 06 3D 2F 60 12 47 E9 AA EB
 CD 4F CC C2 0B 55 EF 5D 3C B3 06 20 34 CD EC A5
 5E 4F DF CB 8B 0B E9 95 99 60 11 41 9C B9 E8 EC
 6F 7C 96 40 40 28 39 91 CC E7 64 AB 51 EB 3A F5
 B1 15 48 B4 D3 9B 04 17 95 C7 F6 00 A8 33 80 19
 58 8F 78 73 81 4B DA BF 1C 6F EC 44 14 B6 F4 B8
 A3 4A B5 4A 81 BE 3A 2C 27 81 29 D8 A5 87 80 66
 18 65 18 AD 9C A4 83 37 89 41 29 67 13 2C 00 E9
 DD 50 59 71 C2 61 6E 74 61 63 4D A2 21 DD C0 3E
 75 40 FD 24 E8 BC E7 92 80 34 27 5F D9 26 EB 43
 0B 78 DF 1F 58 17 77 A2 A6 91 8B F8 9D 89 1E FE
 45 D8 21 6E F2 DE B4 7F 20 D6 E0 51 09 1C F7 2E
 0D E8 E3 B0 49 DD 37 4A F4 73 15 33 40 B8 29 23
 3D 16 E9 0B 9B F4 7D 40 0D 57 E5 EA 59 F4 67 3E
 8E F3 21 D3 79 12 CB 7E 91 67 9B 3D 2D DC C3 17
 24 5D 96 D0 DF 44 E6 68 19 F1 F1 6A E6 B1 CA 57
 86 B5 97 F3 65 62 26 19 86 0F F1 EF B7 78 24 4E
 C8 80 CB 47 12 E2 CC 30 84 DD 68 28 03 4C 37 62
 5D 87 28 DB 9C 7E 29 A2 3A 48 55 B8 FD C0 A0 31
 E1 CC 75 74 9D 93 CD F6 7E FE EF 2B 51 07 36 C7
 4D 77 00 2E C1 75 15 E7 A8 7A 01 B0 D1 A5 8F 7E
 A1 A1 3D 6D 45 6E F1 D7 7F 21 A9 84 27 33 8D 51
 5E 14 CB C4 38 2B 31 0D 7C 9D E4 AE D4 CC 49 51
 BE E1 FC 75 0F A4 EA 82 4B 00 3D 4A E2 F0 12 96
 F2 9F 53 57 88 D5 11 49 CD 8D AF 5A CA 55 88 82
 BC 8D BE B1 D0 80 DF 4D 7C D5 72 6C 78 86 3C 7B
 88 84 F9 E8 3C 22 8F 54 10 EB F9 02 66 17 FB F0
 4F 30 22 0B E0 B1 1E F2 33 4B AC 68 75 BF 8D B6
 00 FF 8C 89 1C 5F AF 30 FE A0 4F 92 B0 5B 78 A3
 DF 11 96 4C AA 83 89 05 40 31 75 A1 23 1D 50 88
 0B 1A 30 CB 74 A9 7E 7E 1F F6 B2 57 23 D0 01 CB
 A1 B9 61 A4 C6 AB 45 2A 07 5A 05 E7 62 3E 5F 93
 E9 82 8B 3D D4 4E 92 A4 30 1F 85 D4 B8 54 0F 29
 FA 4E 51 73 CA C3 FB 03 E4 9F F9 FD 00 32 3B 58
 E9 9C 68 17 2F 27 02 4E C9 78 E4 94 3D A4 C8 3F
 46 FC 8C 43 B2 31 FD 3C
* End 1090263259 3094106341