* LTspice Encrypted File
* 
* This encrypted file has been supplied by a 3rd
* party vendor that does not wish to publicize
* the technology used to implement this library.
* 
* Permission is granted to use this file for
* simulations but not to reverse engineer its
* contents.
* 
* Begin:
 12 2E 67 0E 48 8A 08 19 E6 39 EC 0D AE D3 C5 95
 03 65 5D 59 1E 36 69 C3 E0 A2 82 4D 63 68 F5 BB
 25 B8 92 8F 02 C1 5F 3B DB FF 25 BB 0E 2E 19 8F
 C7 48 D6 39 FD E1 1C 48 31 A2 45 70 42 F1 F6 84
 10 78 81 A2 78 76 6F 26 2F 10 14 33 68 87 21 67
 1C D4 3D E3 F8 BE 97 D9 B6 12 43 68 02 37 78 74
 4C CB 53 55 A6 22 C2 B2 2A 15 1B B6 79 74 29 F1
 76 87 3C 63 D1 EC 83 7E B7 7F 12 F0 41 2C F0 FB
 71 72 B8 BD EF BB 3D CA 81 26 32 0A C8 45 10 33
 2C 45 0A 0A FB 2C 7E 9F 01 80 F7 47 58 C7 B2 0B
 25 13 19 EA A6 F4 4D 59 F6 82 F6 CA F6 58 C3 8F
 94 6D 40 83 DF DB FD 37 81 89 84 0B 5A 65 86 EF
 51 CF EE CB 67 26 6E 9A 6F D9 CB A1 28 F7 FE 88
 C4 C9 20 B8 6B CA 9C DA 0E C3 B9 A7 3B E2 CC D2
 1A B1 04 32 A8 F3 B2 2D D2 3E 1C 75 2F 60 52 2A
 12 A8 85 30 D3 79 69 23 AB 51 2B E7 69 65 E5 FB
 4C 8E 14 94 4F 83 0E 04 CB 3B E8 3C 3C D3 59 7D
 72 C9 58 BC D9 21 9E AA 03 FD 6F 0E 7D F9 F9 44
 AA 95 5B 18 BB 3F E9 AC 4F 87 B9 90 60 7F F2 DA
 5E CC 78 A6 5E A7 23 CB C2 B9 08 E1 41 D3 6C 4C
 7A DF 7D 4E 59 52 FA 9C 4E 9B 64 8B 9D EE D9 5F
 FE 37 13 73 BD 3E D8 97 3B 96 BC 6A 2C 9A 6F 8A
 46 29 D3 CF FC 58 92 5F A1 8A B3 C6 0A F3 57 4B
 A1 60 4F F3 33 1C 84 C7 FF FE 87 6D 5E 51 64 41
 F2 EE 92 09 72 5C 8F 55 C5 61 4B CA B5 95 E2 E6
 4B 96 19 74 27 F3 2F 8D 56 ED 36 39 F0 B4 56 75
 8F 4D E3 0E 82 46 56 76 7A 1A B5 AA B2 B6 38 69
 F7 CA 97 14 80 DE 4C 31 AB 8C 48 7A DC 71 80 60
 45 6D CA 52 CF 2D 7E BD FC 1B 80 DE 2F 64 8C D0
 A2 9F 7F 0E 4A 00 AC C3 ED CB 91 CB 80 FA 7F F4
 17 F4 EB 4D 95 1B C2 2E E2 C1 22 80 6E 0A 11 C8
 EE E6 EC 1C EA 7F 31 8D 4E 5A B1 67 5F 15 44 57
 EA 3D 07 E2 29 87 95 E5 0D 8B 6F 16 EE 36 65 46
 4B 37 80 27 4D 76 46 59 35 FA 80 E3 A9 AD 5A 63
 90 92 FC AF D6 76 BD F0 87 53 A4 8E 5B 88 B9 08
 C0 8B 9A E1 31 69 38 2C 57 75 75 1E 38 AF DF 49
 86 4A 71 53 49 F6 53 6E 66 92 27 1D 65 30 98 8D
 EB E8 3D FE A3 BA 8E E4 30 01 F9 59 1A B7 DE F0
 79 0B 02 5B 8D 0D 34 7C 91 A2 A9 28 2F 09 37 8A
 41 62 90 5E B4 F8 52 B5 39 7D B6 D6 66 1F A4 1E
 C1 8E 21 8F 85 8C 9C 7F 20 7B 10 1C 03 13 0F 50
 5B BA 10 42 5A 09 B9 E2 EB 68 EC 0B 12 2F B2 54
 4C 9C F8 AA 3D EA 7F 76 B6 D6 BB 80 04 25 D8 7C
 45 F5 E3 B8 29 AA 55 C0 37 8C 2C 7A DA 54 39 E3
 B4 64 92 9E F3 E2 CB B6 71 17 D9 F0 35 B0 02 61
 1C 98 C9 24 F4 CE 2E 95 A7 0D AF 7D F1 A8 3E 12
 10 EF BD 38 0B 58 54 45 D2 14 C7 14 6A C7 0F 58
 0C BA 66 33 D8 2F 2F 73 32 BE 60 F9 B1 2A 7A BF
 F2 56 6E 94 29 FE 85 C1 7F 7B 32 31 97 57 4A 65
 EF CC A3 2B B8 3A 68 22 0D D8 E5 EF AC 09 B8 94
 CD A9 FA 08 61 6C 01 97 52 08 40 3A 5E AF CB 43
 2F 20 D1 48 C4 42 02 02 E2 0B 22 6B 53 9A 51 4D
 2D F0 90 37 D0 27 00 7F 90 13 D2 73 E1 A0 AB DD
 63 74 86 45 B0 32 F2 76 88 0F 5C 33 A1 0F AF 64
 D3 5A 97 D9 DA 24 3E 3D 17 29 06 7D 8F 9B E9 D2
 01 7B 68 7C 10 55 FE 94 B0 82 18 44 A6 F7 00 CB
 F8 EE 72 B2 F8 CA 6D CC 2F 64 AC A7 30 FD AF BC
 59 17 5E A5 72 4F E5 08 70 E1 4B 77 10 2E 79 58
 E3 F0 9A 5E 54 8B F6 5A 4E 86 1B 94 D7 FE F6 5C
 2E B5 F4 FE A1 96 14 BC C2 31 E5 E7 C7 05 28 7F
 D4 01 B3 71 0D C8 32 2C 28 F3 F8 55 D7 FB 42 6B
 64 6F 60 12 F9 3E 90 19 43 E2 FD 7A 9F 16 A7 36
 0F BF 1F 83 10 1B 9E E1 E9 83 D5 78 8D 7A 10 60
 A5 D4 8A 18 62 FF C8 E5 AE 6C D4 02 ED 43 56 47
 F8 B8 06 E6 AD 71 1C 46 A3 0D 7E 64 35 C8 76 5D
 80 AF 4E B0 63 9F D6 1F 4F 05 CA BE 37 7F 2D 59
 C0 DE 40 15 19 1E E1 42 3C 0A AB F1 40 BE AA 7D
 BF 48 89 E4 72 93 64 AF 7C 53 AD 6F 20 72 25 E3
 F3 B6 A9 1F 63 C7 B3 CC 35 B4 DA 0D 36 70 BF E6
 1D FA 17 E5 2F 29 8E D7 AE 04 85 58 80 68 0B AF
 A5 CC C2 DF 3F 73 4E D6 A9 5F A3 E7 7F A8 49 61
 8E CF 00 F7 91 BE CC 4E 04 BB E2 96 57 1A 68 DC
 A2 7C 27 D8 7C B7 EA FA DC F7 48 E0 BB F5 AF C0
 74 BC DF 0B AD BE DA AF B9 54 B5 3B 04 A7 90 ED
 92 AA 6A 20 85 8F C5 B4 D4 F8 CD CA 92 7A 33 09
 56 F4 CA E1 0A B8 F7 B1 0D BA EC 5C 14 44 47 8C
 87 2B EF F9 FA F3 A4 47 A1 B3 BC 42 50 9F C5 40
 5B 0F 1B B6 EE A0 E9 1F 97 7D 13 64 DD 75 13 AA
 12 E4 53 F5 F0 EA 7F AA 00 86 73 B2 1B 4E 66 E9
 15 F8 2B 48 EA A7 7B 99 A6 A4 8B F0 9A 79 03 CD
 BA BA 5C 9E 9E 80 58 7C 22 A9 0C 97 A4 E6 E8 C5
 08 08 B7 D6 D0 F3 CB 28 F4 56 3C A3 15 EE F7 A7
 55 CF 20 A7 3D 85 95 61 D1 A3 62 99 9C 77 1A 9E
 8B A0 AD 2D 47 09 9E B4 C5 79 6F A3 A0 ED A1 0B
 1E 83 77 FA 94 2A 7D AC 93 28 E3 53 95 16 12 2E
 74 D4 0C 98 9A 10 4F 98 BE 49 2D 30 89 DE A3 D2
 88 8C 71 D7 D8 2F 2D 30 0B D0 CB 5C 36 1F AF 19
 44 19 9E 06 CD 39 EB 3A 10 21 38 8A B0 21 2E 55
 1E FE 2D 77 52 6B 8F 42 44 35 0F F8 10 9C FB 7D
 95 3D EC 67 1F 61 FE B2 9E BB E8 FB 72 D3 8E 1D
 E8 ED CB D0 D1 29 F3 EE AD DB 21 73 34 16 C1 FD
 59 87 67 7B 9A 4A 99 31 67 A7 D5 A8 B0 8E B6 9F
 74 C9 3B F8 7E DF F1 3A D8 53 56 6E 63 F9 65 68
 02 15 54 67 15 F4 8F BD 1A 8E 6E C1 AE DF C7 42
 F6 DA 3C 60 58 2B 72 56 E7 93 B2 93 A8 A3 54 2E
 C5 83 C8 80 6E E4 26 D3 30 E2 91 4B B8 FD 29 CE
 B8 09 6A 24 1D 81 0A 4E 87 F1 67 68 08 EC FE DD
 9D 52 D8 C7 54 26 33 60 69 F8 02 BB BD 94 A1 3C
 32 A5 98 03 E6 C8 61 D5 B3 4A 5E 75 F4 E6 5F 03
 F0 72 1C 63 12 C3 8D F8 5C E3 66 C2 EC EF F3 6E
 15 AD 47 64 DF 89 2B 70 0B 69 83 18 E7 5E 43 3C
 22 BD F2 DB F3 24 A6 78 A9 D5 D2 CD 13 2B F9 31
 6C 9C AB 62 74 25 4D D8 CB 39 1D C2 48 E3 81 68
 4B E7 92 80 CD 97 34 44 40 0B 48 E1 3D F7 B9 18
 D7 DA 18 05 A7 E7 D5 4C 6F 5F 8E B4 28 20 B4 04
 83 EC 9A 69 08 8F 21 EA A6 DC 4A 05 E2 FE 77 D3
 02 A7 40 C3 6E 97 71 BB A7 24 E7 9D 10 99 0D 2E
 F0 DD BA C5 B5 C5 18 65 E9 E2 09 BE 99 CD 1A A1
 75 57 C5 9F 58 E3 69 5B 60 86 4A 40 22 DE 18 81
 29 F9 EC 4F 1E 9C F6 13 D5 7A 40 65 B8 5C 0B 07
 69 D7 0E A4 C7 4D 12 00 4B B6 89 93 E4 35 C7 0D
 A1 AD 05 B7 56 BC A0 2A 82 24 93 6E 66 BF 34 42
 F3 02 70 12 EC 96 1B 91 01 DA 49 E9 E6 F3 C3 5F
 DD 91 A2 F5 E8 11 0E 6C 61 0D 63 2F 75 A7 12 9A
 BF C5 4A BD 4C 96 8D 60 43 E0 26 84 EC 40 65 E2
 FC 51 2A 4D B6 C4 50 39 7C 38 AC B4 0B 17 77 14
 0D 96 16 00 19 3A 10 17 B2 15 59 27 D3 F2 C7 B1
 02 16 D9 42 CD 93 2E F0 A0 BC 56 8C 94 5A 80 6B
 6F F5 69 53 CA 53 40 CA 57 91 AB 31 B4 14 9F 2D
 AC 04 E9 35 73 88 7D 5E BA 38 60 84 7F E2 0F 85
 23 68 5E C7 D4 59 0A 16 B5 DE 92 54 38 40 B3 B7
 9D E6 6C F2 3F 2A 3E F4 F0 09 E2 56 28 95 57 61
 A2 96 47 9E 31 FA E1 56 DD 52 DC 5B 22 1A 6C C1
 21 DC 4D F0 A9 53 77 7E DA B4 47 F5 B4 10 53 83
 32 1D 64 1F CA B8 C5 C0 62 5E E3 29 76 B9 52 E3
 D0 BF 29 34 67 D8 6A 82 DF F9 AC 94 FB 33 E0 F9
 0F 19 41 88 76 5A 11 1A 91 30 9D A5 48 F4 34 31
 8D 22 C6 FA CE 1F ED 99 B2 96 7C 64 B2 45 F9 73
 67 2F 9A 53 D9 63 CE 21 83 70 AE 80 DD 4C 97 6C
 56 57 81 BD 63 8D 2C C5 BF A7 D1 21 24 85 05 45
 F8 D9 C0 B1 ED E9 33 2C 86 CA EB 20 20 B2 99 FE
 8D 38 57 3D B8 1B 49 DC 01 C2 3E 5B BC CB 24 7E
 4A 57 2D D5 69 41 A5 FB 5B A7 18 50 BE 94 B7 5A
 B7 7A 7D C5 01 74 2F F7 70 6F 82 54 68 85 9E 72
 86 E2 1D 73 CF 2C B8 93 F9 55 0A F2 23 E9 FB 13
 D6 04 68 5F AA 9E 5A 40 CB FA 5A A4 4C 2B 7D 7B
 01 CA 70 AC 58 9F 40 6E 00 59 D2 87 B6 C0 59 71
 E6 A0 F9 BB 63 78 93 47 15 C9 EE BE 1A 9F 7F 9E
 12 62 71 C7 A1 5C 30 9E 94 E4 90 62 06 8C 49 55
 5C 51 A5 FE E2 BA 5A 44 99 E9 DC BA F3 BC DD EF
 9E C5 D7 A9 74 29 4C 65 07 A9 55 AB 70 CC 41 D8
 21 20 51 EA E5 BE 2E 4F 02 82 86 6F 6F 64 A2 33
 A6 5F 86 2F E8 8D C3 89 C3 F7 8F 05 40 C5 80 CE
 B3 9E 93 14 3D C1 06 89 CF 44 C3 04 F6 CE E8 D4
 98 6E FB CE 97 B0 41 7B B9 7D 6F 2E EA 1C 80 A0
 B5 4F A1 6C F1 31 B8 F5 66 24 ED A4 4D 43 70 BB
 C1 07 EE 6B 54 17 FF 1C 35 F4 C2 59 3D DD 11 7D
 43 F5 60 6F D3 42 46 A2 5E AE 84 C5 FA 92 F6 06
 D3 C9 2A 07 8F CC 46 CA D1 0B 83 BC 9A EA FA 51
 3E 63 D9 9E 52 B3 3B 2D 4F 22 59 A2 A3 F5 86 A2
 65 EA 59 74 A8 AD 7D 2A 88 EF 40 68 69 24 54 87
 AB 2E 1F 54 24 0C E8 3F 0B 88 AF 58 37 27 69 33
 06 36 98 32 27 96 B5 03 6B B6 C1 E4 0C 3A 45 95
 47 D2 39 18 8E FB 89 4A B2 C7 4C 20 9D DF FF 33
 3B 53 21 71 6E 42 B1 42 10 6F C7 F4 76 BC D6 2F
 AF DD 06 E7 8F 3F FF 07 78 E0 C5 6B 94 D6 D9 CA
 16 04 B1 07 9D CD 32 16 97 45 81 9A 7A D9 F5 B2
 9F A3 F6 AF 49 5B 89 F3 CC 25 34 0C 2C FF 72 95
 1F 91 6E 01 64 59 D0 61 05 EC 32 13 92 E8 91 52
 A6 4F F4 2A EE 53 C0 74 45 2D 71 B4 4D 54 F2 97
 97 55 DC 7A 10 76 BE 75 37 F6 4F 24 26 E9 1D F7
 99 2D 12 D1 1E 25 3D EB 18 80 6B 77 1D 07 1E 5C
 64 48 B3 28 5B 12 C7 38 43 B1 B5 82 C9 58 91 92
 C3 48 5B 51 FA B0 32 5F 3E 89 49 AC 16 5D 52 01
 C8 94 2D FE 0E 32 C9 19 25 49 17 7A 80 C8 A7 8C
 E9 11 0D A5 86 27 76 87 0B 16 83 69 5F D6 AF 3F
 90 49 FD 97 BB 45 AF F6 A3 9C 7A 36 23 88 10 DC
 E7 CD 19 B1 93 2F E5 7C 3A B4 CD 99 ED 31 A0 C1
 8E C8 2D 56 BA 29 6B 9C F3 04 BD BD D0 52 2E 45
 29 C6 55 8C A5 2D 28 6A 2D 71 5D 64 BA D7 1B E7
 64 5B 95 3F 78 ED 94 1B 4B 95 1C BF C9 2C C6 29
 9B 85 26 03 13 F1 50 D0 FB EA FA 14 62 43 9D DA
 8F 00 E7 B6 C6 B2 67 AD 95 E2 8D 4B 58 DD 06 E3
 D6 93 B7 47 55 04 C3 0F 4A 90 D1 EF DB 6D 14 CF
 BF A4 19 06 AC 76 6A 53 2A EA 21 7D 1C FF FF 3D
 05 37 72 09 9C 73 E6 D2 27 A4 47 6B DF 9E 9C 6C
 95 B2 D2 1E 5C 56 24 42 30 C3 98 FD 65 6D AA 01
 C8 6B D4 FF 96 16 8C 81 D7 4A 32 F9 E6 49 5A 7B
 9F F6 F6 20 24 4A 28 07 F8 C6 CC BF 79 77 C0 94
 E5 59 CC CB FE A0 79 2B 42 2A F4 BC A4 F9 C7 BE
 B7 44 53 31 2D F0 62 CF 5E 14 09 3F 9E AB 2A 0C
 AC F6 54 C2 0E BF C2 E8 B3 4D 83 B2 F2 23 A1 83
 5F 01 3E 53 10 ED CB 53 23 6C C0 8D 27 CD 8F BD
 98 07 27 F9 84 7B A6 9A C1 E0 6A C8 87 3E 92 13
 21 90 C5 7E 5F 58 24 D6 05 97 83 D5 B5 81 9A 72
 02 D4 03 EA EA D8 9B 4B 52 D7 B1 20 61 F4 A2 35
 04 AF A9 17 1A 0F 3B 1D 51 9D BE 51 4D 60 2E E8
 C9 60 64 A5 32 F9 43 2F 91 6D BE 7E A9 1A 94 58
 B6 18 12 96 06 D1 30 67 A0 28 A9 81 EE 43 4F 44
 C6 ED 85 B0 4A 1E 28 3D 7B 6D 22 B2 A2 D0 DA B7
 7C D0 C2 F0 E1 F5 50 32 AB CD 92 75 22 08 E4 8D
 F2 04 CA FD 67 00 F2 D3 3D 15 B2 0B 96 8B D3 A8
 A5 C7 3E 84 19 A1 5A 8D 31 9B EA 51 20 1C 1C 52
 DC 9C 24 6D 03 7D 6D 5E 2A A5 00 E0 CA 4E AC AE
 2D 84 10 A8 73 F3 06 98 00 94 C1 BE 9D FA 3B A6
 CE 37 91 DD CF C0 63 91 33 66 53 07 2A 32 90 38
 72 CE D8 F9 6C FC C6 09 04 36 CD E2 3F 35 67 74
 83 D4 F4 F0 DE B7 73 98 EE F4 23 35 8D 14 0E D6
 A5 ED 06 43 20 BA D5 B7 BC E6 B4 86 18 59 BC E7
 4A 0D 33 EB B9 82 CA 1E 7B 5B 14 E1 60 BA 91 83
 24 3C 4C B7 69 BE 48 40 8D C4 D2 7D 53 9B 08 91
 85 7B 14 E4 A0 30 11 D2 63 7C C4 44 44 27 0E 66
 8D 30 93 54 CD 48 41 A8 08 FC 76 69 E5 20 DB E6
 7A 2C 91 1E 56 48 E2 BB DF C0 91 0C 22 43 B8 60
 6A 7F C2 84 01 D5 B8 47 F0 01 F2 8B 4B D3 73 70
 5D 5D 9C 29 AD B7 A2 01 3D AB A7 57 FC 90 C1 31
 AA 86 9D 56 CE 70 A1 B3 EA 9C 85 51 6A 7B 4C E1
 E2 D6 DA B0 76 F2 53 D3 BC A0 7B D5 6C 08 D0 9F
 A2 6C 25 50 71 DA 36 AB 98 7C 1D 7C 70 9F FA F4
 36 4C A8 E1 CA C6 03 5E F5 83 D0 B2 80 FE 41 B9
 35 9D 11 2D 61 9B F7 FE 95 4D 32 71 6A 75 44 DD
 8C A0 56 6B D8 3A 0B D1 73 26 AB D1 D6 A6 3D 6E
 29 BC 9A B4 4F 30 BF D0 84 BE E0 C5 AF A7 32 11
 6E A7 55 31 D5 DA D6 21 B7 DD B6 5A 1A 96 FF E0
 37 84 21 FA C6 BA AB 24 81 EA 66 15 38 C2 0F BF
 C4 A0 E6 7C B7 C8 67 55 D8 28 99 23 CD BC AB D7
 6C 5B 7C FB CC 0A C3 06 C0 03 DE 59 83 7F DC 99
 61 04 D0 E8 A8 68 81 77 83 11 4D FB 74 3E 22 A1
 B4 2A 14 82 14 73 CC B5 96 8F C3 5C DB C3 3D 26
 E3 AE 35 91 18 D8 BC B4 01 18 56 80 90 8C 36 1C
 F3 E2 81 53 6F B6 7E 51 EC D2 8B B8 78 31 05 1C
 4F 77 F2 1D 03 8B 43 84 EE 6B E1 06 3A 3D D9 1D
 D9 20 04 FA A6 67 82 44 2D 54 CF FD BF 93 38 04
 12 BE 02 70 3F 0C A6 38 F3 60 7D 8F 8C 70 01 B9
 6A 7D 48 00 84 56 5E 25 EB FE 5D 5B B2 01 EF 8D
 34 47 7E 14 24 44 42 75 ED 15 44 68 E0 92 45 79
 61 50 04 2A 79 30 12 6B 97 65 DE 18 DC FE B7 9D
 08 B2 B8 44 71 F3 67 0C 6F 84 2A 44 30 1B B8 17
 FF 87 2B 67 D1 2F E3 E2 AF F3 2C 84 C0 E8 C8 56
 9F E3 A9 02 DD C5 25 6E 47 3C 56 2C 71 89 EC F0
 5A 73 0B 89 38 83 AD 1E 38 06 9D 1E C2 42 51 74
 83 49 FC 4B 4C A3 17 51 37 06 87 6F 08 3E 7B 62
 43 BB 0B 5D E2 9D 80 93 62 86 79 3D A4 EA 6A 4A
 90 E5 19 5F ED 14 9D B7 62 10 1C 11 2A F4 38 60
 C6 43 16 99 FF BF 06 65 8C 08 B7 38 D8 4F DE 6A
 C2 A2 78 B0 E5 1A 0F DA AB BB 4B F9 B0 30 A7 71
 E8 4C 56 B4 EF 74 05 3C 86 87 DA B3 30 74 AE AF
 7B 0E 95 C0 94 F4 AF 1A 46 19 EF 58 BC 7F 6B D4
 0B BF 48 F3 3D 44 B4 F1 C4 9D 09 86 D0 F9 CB 23
 5C 87 C4 C2 2B DF 19 80 57 50 1A CD 12 78 DF 0F
 34 A8 FA 23 DA A6 98 FF 91 C7 ED 5A 16 0C 70 64
 F6 9E 43 C9 23 17 66 EE 4D 55 A0 84 73 D5 D7 35
 A3 5D 79 D2 89 8F 79 2E 4F 4F 85 96 D9 86 3B F3
 44 6D BA 08 EE DB 82 18 28 18 C3 17 D6 37 10 8F
 A4 D6 BE D2 4A 7A 37 BB D4 6A 99 4A D4 9A 19 3E
 86 69 62 57 FD CF C5 09 60 C1 BD F9 67 26 D7 9E
 89 93 74 DB 3E EC 4B 82 79 C0 DD 07 05 EB DE 24
 6F A3 63 3C 0E 50 24 E1 F5 C6 27 DA 86 DA E6 B3
 FB AC 4A 62 99 B7 4D AC 65 ED 61 D4 CA 57 B0 40
 66 56 35 D4 E3 19 FB FD 03 78 F1 3D FF F7 4A FD
 4C 76 59 1D 74 F6 22 2A C6 EF BE F8 3C C2 E0 D6
 10 6F 67 45 90 99 27 83 D1 C3 51 9B 70 99 E8 08
 8D 83 7B CD 80 98 3B BD E4 D8 D9 FE 2B 22 3F C8
 15 72 ED B6 6D 69 39 86 08 1A 91 8E 27 A3 C3 76
 DA 43 60 33 F7 5D 9C BB 52 34 56 42 98 5B 44 86
 CD 96 87 A9 CC 04 4D 05 00 A5 43 7D A8 08 9B CA
 C5 13 F1 36 EC E8 67 80 D6 CC 31 7A B2 6C 10 92
 17 C6 7D 77 A3 16 42 9B 38 A6 AD 34 48 AF A2 46
 5F 86 8F 11 29 99 52 9A C9 54 92 4F BC 76 07 C3
 27 67 E9 51 61 B5 5C CE FA 6F BA FD C5 8C C9 CB
 32 52 8B A1 24 7E F0 75 97 DA 6A C3 24 58 C9 3C
 8F C1 E1 5F 16 C8 8C FD BD 02 C3 87 4C C6 D9 A8
 B4 77 D5 A3 AB DE B8 15 7F E1 86 19 44 EA B8 7B
 09 49 71 A3 7E 78 31 1B 9D 63 66 B4 E6 35 1E 03
 71 6B 7B 4A 0B 09 D2 B1 BA 15 11 20 BC 71 0C C1
 D2 93 C9 D5 1A F4 C7 34 7B EE 00 C3 AB F4 EF 5E
 6A EA 30 32 5E E2 AA 65 18 F9 85 74 3C F1 D8 7F
 DC 21 61 ED 82 80 AE A9 B8 4D 7A D7 4F 77 25 05
 61 C0 79 7B EC 3D 23 54 B5 95 2B F9 86 12 BD 98
 CF 0A 02 07 62 52 30 66 0B 57 0A F6 4F 8A 31 8F
 25 DD 13 14 14 50 83 7F 42 F9 E8 AC B7 4A 7D 38
 0A 7C A9 96 7F 36 54 78 D1 04 53 0C 8E 7C 29 9F
 32 6B 35 90 9B 6E 12 64 4A 27 65 8C 16 3E 9E 8E
 65 56 EE E1 65 EA DE 72 43 AF 02 D8 8B 21 23 FD
 C1 A1 16 E8 0F 2D AD C3 3D F2 81 D0 5F E6 FD 6F
 29 0A 9E EC 2C A7 B9 42 74 E3 2C 8B 47 D4 FA CA
 A4 B5 D5 44 69 74 31 3C 6C E8 BF 42 42 50 7B 57
 E1 F9 48 E3 32 D3 61 0E 7F 19 66 BB 3C 3C CF 44
 DE 11 0C 37 F0 6E C4 BD 32 1D 83 84 39 24 2E F5
 BA 23 72 34 87 23 12 C1 0B C8 0E DE 0A A0 5C C3
 41 E3 4D 74 18 B1 19 C0 20 D7 85 BA 3F 2D B5 6F
 70 53 5C 05 28 2A 20 5B 10 CF CA 0E 22 AA A0 CF
 C8 35 14 BA 02 4A 22 1D B4 7C A4 9D 69 BA 61 D5
 A5 57 A8 2F 5A C5 68 21 5C 87 BC 29 36 96 04 44
 6B 72 A5 E3 98 36 90 FB 7C AC C2 FD F5 D5 D1 BA
 4E 5E E7 CC BF FB FF 87 C8 DD AE AA CF A2 37 E2
 E8 F4 B0 FF 87 99 BF 45 8C 48 97 BF 62 3F 8F 75
 83 AB 6B FD BB 15 CE 95 F2 2C A9 F1 37 83 9A 3D
 54 97 92 08 97 80 C4 78 04 2A 15 17 2F E4 DC 56
 D9 6E 1A FD CB 51 C5 B5 1D 56 A0 D4 73 39 11 89
 F4 0C 8C 70 26 13 1C 16 95 1D F3 03 5B 2B 8B 35
 81 4F 32 DE A6 50 0B 72 E8 28 D2 E4 11 A2 7A 67
 BF 1F F6 ED 27 CF 24 ED 3E 84 6A 68 74 DB E5 5B
 0B 47 2F 9C A5 16 AB 32 6F C0 16 40 3B 51 CE 40
 7B E9 01 C5 39 C8 68 CD EB D8 61 EE 4E 08 B3 5C
 18 FC 83 2E D0 01 A8 35 38 9E ED EA D6 51 53 5D
 39 65 E0 4B 49 06 AF A2 41 61 27 7B 1E FC 94 6C
 15 E8 40 22 D0 42 02 A0 A3 28 98 68 F8 A1 9F 79
 BB D9 BF 88 28 98 ED 99 96 D2 A5 81 6C 73 1F 64
 B8 56 DC 55 26 70 25 E4 6F 07 A8 0B 22 AD E3 0D
 5E FB D7 09 86 8E A0 88 FF E9 4E 8A FB A1 3B 70
 EB 77 34 BB 48 89 C3 C0 54 2A F6 5C 7C E4 D3 20
 D3 F1 77 68 F6 A8 50 89 80 64 A4 4D D8 8C 49 F3
 D6 AE 40 C0 11 8C F4 D5 BB 14 5B 2D 42 E0 7A 53
 F9 21 4F 89 36 76 33 04 BC 6A DA 16 2E 73 C7 AE
 F4 20 E0 FA 21 96 FD 31 7F 1F 20 B0 69 8D 7C C8
 5D 35 69 AE FF 53 61 08 3C E6 F2 F6 B6 A2 0B F1
 49 24 D7 92 BB 77 1A 50 55 7C A6 97 7F 88 44 97
 0D AB 80 EE 0F C8 58 78 E1 0C B2 A2 23 70 E6 3C
 65 44 09 C3 ED 4A 6B BA 63 D1 8B C6 DD A4 01 68
 93 D2 F2 3F 4D 1A C9 FB 3F F3 23 4C E3 40 68 7A
 0D 4F 17 7B 14 A0 CF 1D 3F 54 77 97 EB 81 56 A8
 93 95 B8 C0 4F 3E 47 6D 0C 56 D2 B6 93 1D 75 CA
 6E B2 2B 8C F6 B5 57 D9 2C 31 5B 30 0F 56 26 DE
 30 96 75 31 09 08 32 D6 76 CD 31 0F 77 1A AD F7
 67 E1 03 2B 67 A7 44 0D 41 91 2E 49 FF 09 A0 76
 B5 12 47 68 E2 C2 AD D2 90 F1 F3 93 76 3D 92 54
 C3 18 2B BA B8 0B 04 DD 1D BD BB E8 08 BB B6 E0
 FE 7B 2D CE F7 C1 E4 49 E8 09 47 8B 9A 78 79 4B
 4B C3 14 90 FB 81 0B 4C CC 1D 29 48 6F 1E 60 ED
 20 86 3D 24 FA 1F 5A 6B 1E 6F 71 61 8D E4 22 5D
 1A FB B5 C6 E8 4D AF B7 74 99 1D 27 0C F8 4B 5A
 EC EF 7E 07 28 52 BF 42 AF A1 A5 6C 3D 29 DE 2C
 04 99 4C 29 9A AB 8A 6C 98 B5 BC D5 A6 2A D5 FB
 36 0F 65 60 02 2E 34 F4 69 C4 58 75 D7 D3 7C 31
 48 A2 84 21 FB 4F E0 3C F2 02 1B 7C 79 F5 95 E1
 8E 64 47 30 3E 7F A4 10 6F 14 FC 27 25 DF 07 49
 92 FF 15 8E 9D C4 2F 2B ED 2A 90 B5 1D FB B5 7E
 C4 47 8B CA 2D A6 94 26 8C 5A 9D F4 D7 1B 48 4B
 88 A5 5B 0A CC ED 52 9D C4 A0 FB C2 81 26 20 9A
 42 A2 84 2D 6B 07 BB 84 68 50 27 B1 0E 4B 28 85
 6C 0B F8 E4 F8 2E 3E 2B 8C 10 06 CD 7D 9C 62 10
 97 A6 EF 2C 7B 7B A0 73 70 59 02 78 D6 01 95 73
 27 B9 D9 CE CD A7 04 57 34 31 56 E6 49 13 FE 27
 B5 C4 71 AE 26 B4 11 D8 4C 82 DA A2 DC DC 34 8D
 6B C2 CA 05 DD 8C A1 97 5F 3A 4F 03 5B 21 AD FA
 5F 2C 29 2E 9A A9 E8 4C 16 18 9B 6C 43 92 A2 5C
 67 58 ED F8 43 1C 8E 5D E7 B2 A9 B1 96 3E 4D 5E
 8C 9F 19 0D 1D 77 2D 35 AA FC 49 70 44 2F EF 44
 E5 EA F9 EA 18 62 FD 06 CF B7 0D E2 15 9D 1A 4B
 AD 7F 3B 0B 09 A0 25 CD 0A A9 BA A3 D7 64 C8 BC
 92 81 4E F2 36 BA 3E 8D 10 F6 93 E4 9E F1 F1 64
 3A E4 3A 53 CC D5 2C C8 D8 30 7C E7 FF 5A 70 6D
 45 F0 D6 70 26 D8 07 E1 15 69 4D 26 58 66 F9 C1
 E5 35 F8 AF 06 08 02 EE 1E 85 D2 07 94 3A 85 3D
 44 3C 64 D3 DD AF BE 55 2B FF 56 C8 13 05 28 F6
 36 8C D7 D2 14 F1 58 16 D5 F6 E2 24 15 64 D3 6B
 08 52 7A 91 CD 66 1B 5A 69 2D 59 10 8C FA E9 F0
 C9 69 57 8A 2C 66 FA F5 99 05 99 B1 08 B1 92 FE
 E7 B2 79 8A 3E 4F D7 AA DD 5D 37 20 B2 D1 C6 9C
 18 8F C5 99 35 7C DC B8 DE 71 06 72 22 6C 52 18
 B8 EE FC B2 A7 81 B9 3D D0 C1 E5 27 AD 3E A1 6E
 06 3F 40 3C 21 B4 57 97 13 06 E5 4B 27 7B BA 88
 03 F9 6A EC 03 61 AE 8F 22 66 84 5E C5 EC AC 36
 86 1E BC 86 DB F2 F3 60 F8 19 C2 1E 25 A9 8F F4
 EC 3D 48 79 D5 EE 84 7C DB DA 50 D8 8C 79 5B 31
 BC 66 02 40 82 C5 0F A0 D9 FA AC D0 A8 1A E2 45
 F6 62 CE 86 E1 2D 42 F7 5C B9 1A 6B A9 44 31 AF
 6D 17 F7 8F A8 14 DA 17 82 87 54 9F CF 60 FC 8F
 95 0C 34 0D C3 36 57 EA CF BC 65 8D EB 8F 62 E8
 9B 8F 94 BE 54 95 4C 61 7C 69 6B 60 9E F2 44 96
 39 11 B4 09 FE CD 33 4B 32 81 10 49 15 5D 1C CB
 63 57 FD 6A F5 C3 DC 1D 8E 0A 8B 9A 99 6F EE 9F
 23 63 90 A3 EF 7A 76 19 44 0D 88 5F A0 8D 1D E5
 3C 09 21 BD 95 1F 82 5D BC A6 53 35 3B D3 D5 F2
 E0 00 A5 00 76 F9 02 CB 6B 20 7D 24 1C 28 99 AD
 37 D2 22 C3 22 99 36 05 CB 83 DB 28 AB 7F D4 10
 EA FB 3B 1D 3F 9D 9B 2A BC 61 93 28 9C 06 25 F8
 2B F6 CC 3E CB 42 DD 94 8D 34 64 46 10 E5 5F 7A
 02 4A A3 5C 01 92 13 BE F0 2A CC 5D 31 D3 52 0D
 6F 41 41 58 27 A1 46 C6 39 46 97 92 BF E7 24 A4
 57 44 9C FE D1 03 2E DF CF ED A7 75 20 1E 06 CF
 72 D6 71 94 BA 01 BF E4 6E 69 27 49 78 A9 4B 6D
 C6 58 31 46 83 9B 37 74 F0 E8 CA 0D 6E 53 27 4B
 34 E0 9D 82 32 47 B4 FF 53 46 31 92 AB 28 A9 F5
 D3 3F C7 8E F2 E3 D0 0C A7 07 D5 3D E9 FC 23 40
 45 7F 50 18 2A 88 AA 9E E3 C4 10 46 6F B3 1B 1D
 7D 1C EC 11 77 D5 A9 8F 0A C1 06 9F 4E 03 BD 8B
 49 1C CD 09 1D 13 95 2D 62 17 77 41 AA 38 B8 7F
 69 AC F5 FD F3 95 96 2B 58 46 9D 44 EC 36 1E 30
 08 BD 19 0F D2 77 A6 05 D2 46 2B 36 9F A8 BE 05
 F7 60 11 4C 16 26 61 5F F7 D3 6C 20 36 00 06 E7
 BD B0 D0 3E 0A 9C BF 1D E2 BD 91 DD 0A 7F DD 30
 39 A3 4E F7 27 D9 FC CB B5 E6 AE 2F 03 1A EB 2E
 44 EF 5A 22 9E 1C 91 67 63 40 11 BB 3B FA 8B 9D
 50 63 A9 D3 A4 B0 03 4B 18 4A D3 8C 0F D8 3C FF
 30 C4 6E AD 08 BC 94 EA
* End 3264917004 3063386322