* LTspice Encrypted File
* 
* This encrypted file has been supplied by a 3rd
* party vendor that does not wish to publicize
* the technology used to implement this library.
* 
* Permission is granted to use this file for
* simulations but not to reverse engineer its
* contents.
* 
* Begin:
 80 32 70 AC 82 B6 61 1E 19 1E 32 52 88 8D 8F C9
 A6 75 0F 34 F7 2F BE 59 92 F6 01 40 78 24 7F 5E
 98 88 53 40 D6 19 40 81 AB CF FC 77 FF B5 BA 7C
 7F A0 6D 34 82 12 2B 47 B9 54 34 1D 09 80 EE C8
 9B BC F2 AD 69 61 AE 77 4B 7C 22 3F 45 65 90 2C
 59 A3 A1 69 82 62 F5 CB 85 B2 03 3F 90 30 58 61
 E8 B6 7D 9B 07 DB 89 77 EA 61 B0 14 A5 3E DA 23
 1C D9 06 BE B7 93 BF 57 F9 1A 7E 7F 84 FD 2D 6E
 DA D8 5F A1 A7 D0 47 43 42 0A 20 12 7D 59 36 A8
 63 55 2C E6 F4 0D A1 45 BB F1 92 AC BA 83 E8 C2
 ED 20 BF 5C 6F AB 51 BA E1 4D 2A 29 67 BB 09 71
 55 DE 43 3F 6D 8E 4B 75 A5 B4 F9 36 BC 9F 32 4F
 CC 19 F2 EE EA 9C 1C FA BC 35 EC 68 E4 31 DF 76
 6B 93 A8 39 A2 AF 9E 8B E6 24 11 CF 79 A9 6A DB
 21 35 17 6C E5 A5 42 BE 6E A2 29 1E F2 EF 7C 2F
 61 7D 69 DC C4 B8 9E 4A 9A A4 35 7E 0C 53 74 A0
 DA 27 31 BE 96 0A 60 CD 02 6B 6A 29 69 B7 F9 4D
 7D BB 52 9E F5 57 A3 C3 06 50 53 89 F6 5B 3E 54
 03 EF 7D 25 3B 15 51 65 83 3D E5 ED 97 7C 99 A4
 CE B9 DE 94 05 76 D1 94 02 B6 CB E5 70 0B 04 C5
 E9 59 F1 47 8F FB 1C 75 81 23 98 35 5B D4 42 8D
 44 DE 5D 71 98 36 99 7D F2 1C 79 D5 83 04 DF 6A
 83 37 C7 FB B7 30 98 42 02 AB DB 26 49 9A 98 C1
 A1 8B FE E9 17 71 01 49 DD 58 4A 78 97 D9 46 11
 DE E0 50 C1 3D 29 F6 B6 B2 1E F2 CD C3 08 A5 F9
 4F 31 DC 39 82 48 A0 48 CC 67 A3 0B 1F 7E F4 89
 0C 7D F9 1E 6A EA 38 63 0C A8 7C 9F ED 75 04 B3
 0C 36 3B EF 4C 44 FC E7 E4 F6 48 DA B8 B7 A1 D4
 DD 6A 64 95 36 9E 17 26 B8 2F EF 77 88 F8 CA 19
 34 B6 FC 14 01 9F 58 5B 35 0D 58 EA F2 57 B7 0A
 8D 12 CC 50 0A BB 7D DF C3 C5 BA 94 BD AD D5 F2
 6F 48 18 7F BF 10 CA F7 65 FB 35 9A F6 5D 30 43
 8A C2 B3 D0 24 06 69 79 1F 6C 0F D1 90 4E 57 66
 3D D4 E1 B8 AA 55 6A 73 D7 A9 9C E0 B0 08 DE D3
 B5 03 B2 CE 3E C2 19 63 2C C8 3D 34 A9 DC 2E AF
 6D 26 B5 6F 3B 66 29 AD 51 14 3B 3B 8F F6 F5 4B
 21 A3 E3 11 FE E4 D4 45 FB E4 EE 08 5B 71 A8 A5
 95 0B 4A 8D 85 39 30 DD EF 31 42 57 47 53 F5 50
 F1 C0 D9 A1 5B C8 5D B2 78 08 77 78 71 D1 86 0D
 FB 20 E5 6D 0F 30 A6 8B 77 90 E6 75 AF 53 EA 31
 CC 0E 44 F0 1B 29 7A 96 FA D2 47 EB C9 7D 52 44
 5D E3 3C DE 2C 3C 7B BF AF 84 46 B4 82 52 0A FF
 3E 69 A9 EC 9E 59 7D 1C 73 14 A5 AB 27 A7 CF CA
 AB 88 FF 84 07 04 B8 E2 C7 04 21 A1 53 48 FA 3D
 18 2A 61 29 BF 1E 59 1B 44 50 A6 6F AC DC 8E 8E
 47 36 02 35 66 0E 95 11 6C EF 0A 9C 59 EB A0 84
 7F 0C 11 A1 FB E6 C4 D6 BC 98 A3 1C 75 D4 1C E0
 E4 39 E5 35 5A F2 DD 14 58 D3 FF 7B 47 44 EF C7
 09 8C 70 AE 31 C3 18 F5 AD 62 C1 F2 2B CD 06 B0
 E8 3A B4 EE 07 C7 17 8E FE 20 06 73 64 A0 19 3D
 48 6A 93 66 BD 70 5E ED 03 E3 51 DC 62 CF 63 EE
 FC 6E D3 3C 39 8B 6F 20 E8 27 5B 82 B1 45 03 69
 84 0D 5E C0 5A ED F4 3E 36 38 95 E4 2D E5 53 85
 2C 3F DB 58 EA 15 C3 C3 AB 59 BE 81 33 77 B8 C8
 6B 11 CB 6C D4 B9 81 2C 55 FF 09 90 92 9E 30 9F
 0F B1 B5 3A 0D DD D2 99 74 A7 93 BA 96 D5 81 A6
 FA F1 5B 4E 66 04 5C 67 7F 16 C5 B9 69 F7 56 7D
 52 F3 DE 5B 79 F1 F0 EB C5 58 D0 0C 93 DD 8C B1
 C7 50 A0 58 2B E0 33 9D 36 54 C7 80 E2 AA 46 00
 01 B2 E5 0C 9F AE EC D9 6E 71 AD 6B 96 C9 46 D0
 E7 45 09 CC D8 18 A3 84 BE 55 D9 88 91 3B 88 A2
 71 27 FE 2C FC E9 B5 4D A9 60 A9 43 7C 35 21 71
 0C 47 1B C4 A4 0B C4 BB F5 66 1A 68 00 04 4D 7D
 64 D9 EC C5 36 11 2A E1 46 83 51 9F A7 13 53 F6
 74 AE 9C 61 77 26 6E 5D 6C A4 91 67 95 68 39 B6
 11 C4 CB 13 1B 0A F4 BD F0 7A BB F3 B1 E2 3F 18
 AD 12 B7 F4 84 C6 B6 93 C3 A1 E5 7F 44 0C AF DA
 43 42 2E 71 72 8C 7D BE 50 EF 74 A6 36 75 6C 50
 3F C0 DF D7 17 EA 56 BA 68 5D 90 42 37 E2 15 2F
 67 C3 45 1C A4 A5 A2 BB 4F 4B 62 31 68 14 42 03
 B4 04 A5 FF 83 2A 03 30 27 E4 8B 9B AC 94 62 87
 A7 FB 5B BA 71 B9 3D FC F0 B7 66 07 1B 54 AF 93
 37 36 1B 49 DD 85 17 E8 0E 65 53 D4 E2 AB D6 66
 C3 3D 97 85 CE DA 21 A6 14 19 AD 2E 9C 81 27 25
 B8 EB BB 31 FE 04 75 6D 7F BA D8 CF BE F6 AB 3D
 43 B1 F8 BF 38 9F EF 06 92 F4 96 9B AA 4E 8F C8
 DD 32 5E 41 95 DB 87 13 72 4E FA DB 10 69 16 38
 82 E4 12 05 86 28 6E DC 8D 7C A9 83 7E 11 CF 92
 0A FC A4 17 7B 74 8E 78 40 F6 F4 C7 4F 6B 93 25
 6C 14 4F 21 90 19 2F 07 F3 A2 3B 67 29 00 3D D0
 66 7D 3F 11 73 9F 69 CF 52 D0 7E FF 44 91 2C 37
 B8 CB C3 E0 25 4F AB 61 94 04 9F 06 A6 A9 7B A6
 41 86 3B 74 FC 77 ED 64 49 83 82 F0 D2 EF 3D B7
 13 01 49 14 AA 34 A0 18 71 2F A9 F2 8A 69 00 92
 67 41 B2 D4 4E B6 1C 91 84 56 AE 01 2A 81 64 B6
 0A 35 A3 8D D3 D4 D8 BE 07 F9 0F 6B BD 51 10 6C
 9C 45 39 84 B2 DF 9C 09 74 3E FF 65 AE 5C D6 E8
 01 89 80 9F 38 4A 93 34 18 EB B7 7D 97 70 1A BD
 97 F7 4E 1B EC D7 5F F1 D1 CF 3F 61 FD A5 15 1F
 4A 7C FA B0 7C 00 5A EF 87 F4 F7 2E E9 88 63 6E
 2E 1A 52 BE AB 5F 20 DE 93 53 D4 91 B8 25 9C CD
 15 B2 6A 45 2F E0 92 28 15 7D 0A FA 75 F3 ED C3
 81 A3 05 8D 76 44 2F FB CD D3 AD 92 7E A1 61 0D
 2F B0 F3 3A 23 1C E3 10 2A C7 70 97 26 72 83 FA
 2D 6D 93 F4 D8 76 38 D3 2D 92 B3 FF 77 A0 71 03
 64 C8 E1 F0 94 3C 6A 08 13 35 A3 C5 6B 11 83 BB
 3F B6 62 59 8E E9 7D 55 B7 B0 F8 D2 93 97 B7 FC
 5A B7 FA BE 10 FF C1 CE 23 D5 5C 69 99 32 E8 B6
 E9 0F 43 B0 0A FF 93 E4 F2 26 9C CA DD 23 A6 41
 59 A9 B2 4E E0 51 9F BB 69 9E 09 BE D8 12 C0 D0
 25 A8 33 4D 82 C4 BD 76 F2 C1 63 A4 C9 F4 7D FD
 5F 6D 86 5A 95 42 41 2C CA EC AB 09 5E A2 D3 7D
 AC 28 F4 7F 6E D6 5F 9C 48 C3 D6 EC 1A 9A D4 19
 47 80 30 FB 43 7F D7 47 1C AE E2 DE 3A 8B DC 0C
 73 1C EF 67 2D 68 D4 5C BC D2 B5 58 EA 0C 30 97
 CE 27 82 14 38 AD B5 EF 87 AD 8E 66 AB 0F F8 23
 A7 32 8E 49 D0 3A 2D 40 6E E0 EB 1A 69 B2 B9 4A
 6B B6 94 24 4B 9B 46 13 71 A0 50 50 3C 85 2A 3C
 BD CE 29 B7 AD A7 30 63 2A 07 68 5F 12 CC BC 68
 8C C0 00 A7 A5 C5 20 24 E1 7E 01 C7 89 33 D1 8C
 C7 DE 29 E3 F0 33 4E A8 53 C2 87 A8 EC 9B 3C 6A
 9B 3A 1E B1 F6 48 52 4C 56 FB B9 89 0D 9D 0A E3
 E7 A6 A5 53 18 E3 F5 AD 7D A0 C4 78 D5 F7 9D 4A
 32 14 25 B3 3A E1 DD 79 89 ED 47 E8 53 FA F2 35
 09 E4 B0 5F 84 3C 05 46 D7 49 00 FB 6D 77 D6 8C
 6B E2 61 5C B0 6D F6 A7 F9 47 DF 2C 76 DA 99 C8
 C2 CD A8 34 12 1A D0 11 6E 5C 0E 47 91 79 20 19
 F5 E8 BA A5 BF A1 28 9E B8 DD 1F EE AC 71 46 F6
 17 A7 C4 8C 98 EE E4 B5 E6 5C 87 16 63 B6 02 3C
 E8 07 BA 73 3B A3 4B 30 C1 91 56 6F AA 32 04 56
 1D 0B 35 03 C1 53 80 89 58 70 15 39 18 02 40 F5
 D6 42 24 38 6B 10 B7 E7 1C 25 87 EB DD 17 57 32
 DD 77 9A 9C 42 7C 30 90 18 02 59 67 27 EE C1 80
 F7 30 8F 43 DD C3 D5 89 AF 0F 3A DB 88 C8 4E 81
 93 39 B8 30 94 65 C4 2E 0E 6D 22 B2 B5 D9 A7 7A
 2D 30 9E 81 91 35 F6 AC F9 49 60 79 71 DD E1 E4
 B6 8B F4 34 7F 31 29 FB 1C B8 95 A7 AC 68 1D AB
 3E 90 C0 29 A4 D7 E4 EC 52 2D F6 7A B8 FA 18 7F
 7A 81 2B BB B8 F1 2F DE 3C 94 58 D3 66 F7 76 24
 13 79 B1 C8 5F EA C0 EE 2C A4 04 FA F5 CD 8B 60
 94 26 82 92 2C 10 60 1A 6E E6 A4 AF 89 76 F5 06
 E3 99 44 37 8A E3 03 DA F0 3B A0 09 7E 07 19 44
 EA 96 C4 7F 27 1A 63 B4 9E A0 AC BA B4 C3 AC 85
 E2 F9 50 14 AC 20 53 17 15 CC B6 76 31 0B E2 E3
 D6 91 32 57 D9 A9 BB C5 02 17 F7 E4 85 BB 5E 98
 1E 8C 39 58 3B 84 C1 5C 7E C9 F3 AE 82 07 55 87
 37 1A C1 06 AA FD CC 74 B7 3C 4C 34 56 DB 50 1F
 E0 30 D9 18 05 9E 28 7B 89 0D 80 D2 31 8D BE 7B
 11 9E 37 03 1A 0A E0 31 1F 94 32 9C 47 9C 67 7E
 23 1B 20 F6 B8 1D 77 43 E9 6C D6 B2 9A 56 21 62
 F4 F8 4F 1E CF 84 EA A2 D2 D6 1C 54 D5 4C 91 A3
 33 8C 24 8C 88 C9 EF E2 9D CC 6A B1 3E 0E 34 9D
 64 64 A6 3E 57 57 8B A0 BF 19 A0 EE BB 00 55 51
 EE 8B C7 2E 47 02 4F C9 7D 3D BF 03 2E 64 A0 75
 71 29 BE E2 E6 E0 E2 81 5A 18 B4 6E 11 A9 DD B2
 47 FA 42 93 34 F3 06 B1 3A 79 D5 1A D5 12 E5 A7
 E0 68 FE 95 AC BA 3D 88 33 A2 01 5B 55 E7 9D F7
 C7 33 7A 33 EA 76 63 D0 E8 BD 4E 6B 66 A7 77 B4
 84 FF C3 41 C5 AB 5E 2A E0 4B 3B 57 68 DF 33 31
 FA F2 01 1E 12 72 0E 22 83 A6 8B FD 7E E3 F9 35
 60 E1 21 38 EA 42 C0 6E F8 4F C5 EA E4 56 6F 6D
 47 29 C0 FB D5 A8 BB 13 FF 77 D7 9E BC 3E F7 DD
 F3 07 FD 86 45 50 1F 65 EF FD F9 93 1C D5 C1 87
 3A 67 88 42 7C FF 67 39 B0 E9 31 E6 37 D7 7B 54
 FF 45 46 19 70 35 71 EE 27 E8 EE 54 1F ED 0C 50
 9C 2D 17 A7 C8 36 72 C5 8E 69 7F C1 8A FE 95 DE
 D1 77 32 4C 3C B6 7B 58 9F A3 1A 82 D6 CB 0C 51
 8C 63 35 48 7E 33 B5 46 F0 59 08 6C 42 9B 96 E2
 09 80 46 36 E3 F5 59 AF 49 F0 69 61 B9 01 20 25
 0C 57 61 D1 3D 9E 98 43 A5 82 66 E0 4D 3A C3 61
 11 0C AF 78 EE 92 7E A3 BE 27 FD 20 88 40 A1 3B
 BC EC 8F 7B E2 49 FA 75 92 95 14 E2 88 C2 82 14
 3D 3D 03 CE 03 7C B2 03 D3 A9 D1 6A 99 5A 08 7A
 52 2E 11 BB 85 A6 36 F2 C7 2E AC A7 6A 47 7C A7
 02 83 96 91 9E FE 62 B5 75 AC 0A 24 68 9D FE CF
 F9 66 3D 62 42 F1 AC C7 1F BF 48 F8 05 14 48 0A
 9F F6 74 50 9D C1 A2 A2 5E 23 CF E0 8D 00 16 D8
 16 87 7C A2 DD 26 AB 3C 61 A1 48 71 76 12 9E 61
 EB 55 70 34 8E FE 18 33 1F 26 BC 3C D6 59 A8 5F
 2F C4 B7 C3 31 E5 1F FB BC 83 61 D2 AE B6 44 FA
 E6 A9 8A AE 5A 38 B3 39 F6 41 0E BB 59 A0 E1 76
 8B E5 10 6E 17 70 AB 6A 28 4B 4A 52 FB 6B 02 3A
 E8 11 B1 1C 39 1C E9 1B DA CA EA B1 D7 5D B6 9B
 E0 42 67 78 6F AE 34 3B 7D 03 E4 94 0B F3 BC 8D
 15 C9 DF 7E B5 06 19 E0 5A C6 41 03 BE 79 74 2B
 88 E8 75 96 3B 8B 51 77 F8 36 BA 5F 77 30 D8 52
 85 31 9A 2F 27 64 E0 58 E1 B3 A4 9F B6 6F A1 A3
 52 00 89 29 8A FD 71 67 BE 23 B3 39 E7 FF DA 25
 AE 50 5E 5F 3D E0 68 9A 4F 49 1D AB B1 06 26 2C
 A9 71 EB 40 0A C1 63 A0 12 85 49 5C 01 16 3C FF
 88 E3 0F 51 69 54 B3 E3 41 44 EB 15 29 99 6F A4
 94 A0 BD 26 E2 F9 35 97 49 A5 AF E8 57 A3 10 01
 36 0D CC 2D 1D B0 C3 8B 46 B7 9E BA 35 F3 FA 6A
 BC F0 D6 DF F7 02 FD 37 A5 D4 FA 6C 96 D7 AD 56
 13 FB DE 0C 83 7B 3B 00 25 F1 D7 A4 86 93 85 D5
 14 3B 69 43 7E 0C 20 E9 FF E5 2A 76 2F 8C 80 B3
 15 E6 F8 E1 86 7C A0 EE 51 25 C3 D2 D4 74 68 A4
 24 77 2F 97 CC 50 FA BA 03 BB 4C EA E0 6B 89 C3
 61 38 A9 CC 4E 6C 8F C6 FC BF B7 0B 7E DD CA C0
 67 E6 F3 B9 72 D7 87 9F 34 A0 55 0D B3 0D E0 BE
 29 A9 BF 6E 1E CA 64 99 A1 B7 E6 CE B3 10 01 86
 EC 0F 28 09 58 19 A5 D5 95 67 E8 0C 17 CE A9 74
 27 18 CA 80 47 77 29 BD 2B 75 13 1C 25 A4 04 D8
 11 35 72 7E 22 A0 79 8D ED EA DC 45 B8 26 80 5F
 29 91 37 42 F9 B5 FD 96 57 C6 29 F5 38 8D 74 3D
 E6 AE B6 45 7A C9 1F CA 3A F2 89 7B 7C C1 CE F5
 D8 18 B1 E6 BE D2 5B 18 6B 2E 51 D8 FA 06 16 98
 93 48 C2 84 DF 53 C0 2E D0 97 5D CB A2 C0 09 47
 47 9D 24 AA B1 80 FC A4 B9 7D F1 11 59 2F A6 F0
 80 68 53 40 8E AC 46 3A F8 93 E2 EF F5 7D 6A 12
 30 48 FF 28 8D 86 B0 8F F6 58 5C D1 09 18 BD B8
 02 A7 7A 26 97 A7 1D 1C 0A 8F 6F 1E A3 0A 11 88
 7A 41 B7 EA D7 20 01 00 A6 68 C9 01 76 6E A0 C7
 DD 6A 79 76 54 D6 1F F0 25 92 28 FE 74 D1 1D BC
 20 8D 2C 2E 1F 2A 28 1B 52 78 0A 4F 25 BA CD 54
 04 30 92 97 2A CF EC 9E 88 E7 94 B4 D5 27 3F 60
 42 99 07 6D 79 C2 5F AD 88 13 3E 2C EB EB B6 4F
 6D FC FA 7E 1C 6A D4 FB 2C 14 FB FE C5 CB 55 DE
 BC 80 36 2E F6 B9 E9 5C 6F 64 39 83 57 58 FD 01
 77 DF A3 3C EC F5 6B 3E 0C 43 58 65 C3 C3 F8 6F
 5D 80 B8 81 2C E9 8B 3D AF 23 E5 B2 26 6D F2 3A
 3F 9D F6 C5 EB B9 86 CC 24 51 59 8A F8 D4 92 AB
 BB EB FA 4F F5 B1 67 17 03 4B 1F E6 5B 75 B5 C7
 01 E8 56 93 A4 6F 4F FB B2 68 1A 43 40 D8 6E 5D
 10 CF 31 7D EE 9E D7 B3 6D 13 A4 2A 2A 08 EB 9C
 16 59 40 BD 8D 99 F3 61 6B B0 86 39 94 D8 BB 21
 54 FD 39 F0 EB 1C 4E 64 8C 88 3B F1 9D F1 41 C1
 21 68 7F 92 0D DA 86 08 43 EE 83 36 0A 57 03 66
 56 D6 FB C5 FC F2 EC E8 47 EE 1E 05 A1 1E BA 16
 30 B1 55 3A 05 C7 41 85 0D 4D 5E B0 E2 F1 41 5C
 DC 7D 50 C3 39 59 6A BD 43 7B E2 D7 20 6C EF 39
 00 FF 2B 8C BE 68 88 58 AF 4B 26 C5 82 EB 73 1A
 FC 9C 3A 89 79 37 C2 26 BC E2 9F 88 B1 48 CC BA
 97 26 2D 8B F6 64 68 47 33 A5 EA D1 D1 95 04 C3
 AF A8 4B 0A C9 53 69 4A 71 01 80 9F D1 9B 10 AE
 06 C9 FF F5 A3 8C 29 23 FA 31 C7 6C 91 F6 1D F4
 A2 13 DD 67 A6 68 C6 09 05 C6 7F 1A 14 EC 63 53
 D1 71 24 54 28 31 1A B4 94 D1 CD 18 DA B2 DA 66
 F0 8E AC 73 F7 F8 8A 17 CF FE 13 62 58 77 A4 60
 FA 1C 84 6D B5 93 91 E6 B9 19 92 A9 AB E6 BB C1
 65 17 D2 E2 21 07 0E 7A B8 C5 0B 65 0C 5D CE 73
 46 A5 DC 8D 51 95 39 3E 65 E4 4A F3 56 40 E5 52
 F3 81 15 2E 74 FB CA 6B 68 CF 67 31 81 54 93 98
 83 56 E8 9D 27 85 76 9D E8 62 05 29 DC 19 A3 95
 27 51 E3 D9 8D C2 B0 49 43 E9 A9 38 CE 5B 29 FC
 B3 D2 9C 1E 14 C0 4C 71 73 73 51 CA 97 CB 60 5C
 E2 E8 FA 0A C3 02 EB 46 6A 99 FF EC 6D 12 03 3E
 86 D1 9E 61 76 AB BE D9 5C 7C 6B D8 66 C6 A1 B8
 5B 2A 97 AA 3D AA FC 2A 54 B1 E4 4C 53 96 DF 5E
 9D E4 05 6F 01 34 0F 26 15 E8 88 6D BB CF BC A9
 5A E9 FD BC BA FA 23 D2 E2 E0 44 C4 01 B1 D9 77
 20 0A FE 82 9C 1B 4F 97 34 02 DC 2D 1D 39 9E 81
 6A 8B DB 78 8F 37 66 33 D9 55 6B 7B C0 41 A2 7B
 55 0E F9 C1 E7 C8 D2 D6 C0 14 C3 CC 05 D1 D4 07
 16 89 7C 6B E5 5D FB B4 0A 6D AF D2 47 9D 5E F9
 F1 57 4F A8 85 B7 C4 BD 18 C3 A6 0E 41 15 A3 77
 D5 9D DF 31 53 80 34 04 D4 18 BF 4A AE A6 E8 03
 7C 1F 22 C0 49 C2 6B 11 80 98 A4 66 9B 9B 5F CC
 47 36 38 62 71 A7 8E 9A 52 25 98 71 D0 5A 40 E6
 6C 94 48 0F E1 F3 EF 09 6D FC A8 8F A5 8C 12 5B
 72 8C 19 91 FE 60 2C 72 F0 2D C4 74 88 28 E5 3F
 5B 0A 87 BB EB CD F3 3A 77 62 FB D8 C7 44 95 A5
 36 E0 68 4E 16 AC 85 A8 CF EB E1 7A 92 F5 C4 E5
 91 71 02 E5 7A 46 D9 E0 0F D3 90 0E F4 5A 72 4E
 13 E0 29 37 12 68 62 08 BA BF 10 AC 26 0E BA 5C
 FF 2D 17 DF 1A 7A 74 B1 1E B4 B3 67 D2 7C 14 EA
 2F 1B C2 41 E0 FA 0B 09 35 20 37 49 B7 31 D5 8F
 FE 84 4D BE 1B 8F 72 FB E4 38 03 9F 53 19 90 55
 C4 7B 4C FE 47 3E FA 93 17 31 EF 88 D2 3F EF B7
 4E C9 C6 6D 3D AD 4F 78 6B 16 49 43 EA A2 67 C8
 CE 7D 65 05 D7 30 8D A9 80 C9 BC A3 A0 E0 46 5A
 76 FD 50 BD 9A DF 06 D4 5C 8A 69 61 B2 B8 1A 9C
 8C AF 2F 5E 92 AF 82 11 F7 50 24 77 B9 76 7C 50
 46 D4 1B 90 AE C4 10 B2 67 09 C9 4C B6 4C 3E 94
 29 7F BF 43 C6 DE 92 63 07 40 66 41 57 94 8A 96
 0B D5 EA D5 81 0C 19 3F EB B9 3B F2 E3 9A 0B F2
 D9 D9 54 FE 49 8D D3 8F AD FD CF 8F 5C A5 1D 3F
 ED 19 33 79 44 6D D3 26 A6 3E 2B 66 1C 62 79 51
 32 D5 E3 BF B5 BB 47 84 8B BA 95 BB 46 39 1A CB
 1F 47 C5 4C 7E A6 FB 3A EB 6B 5A 69 C0 71 81 C2
 63 BC 27 3A E0 A1 F9 23 96 FF A5 B5 A2 81 E7 34
 8C 1F 75 1C EA C5 BC 50 DF C4 5D F1 7A 88 EB 75
 9B CF 23 A9 AA 4B 8C 97 64 ED 20 58 5C 7C 3D 22
 5D 18 3A CC 60 39 93 73 E1 56 CD 6B 92 0B 2C 24
 C8 50 EF 52 D0 BC F4 F8 89 CA D2 66 E3 82 E4 2D
 D4 2E AE 5A B2 A5 54 84 36 EC DC F8 0C 85 81 9D
 72 CB 45 21 1F 4E EC 67 7C A1 D1 47 BB 99 2E 61
 B7 BB FF 30 4B 23 8E 45 D1 C1 F9 90 5B 98 EC CD
 CE 5D A3 41 5A B4 31 14 05 FF 06 95 E5 6B 88 9E
 5B DE C9 BB 09 25 98 0A 8C B9 93 4B DA 64 AE 39
 C0 8A 70 C4 56 1E 4C 6B 22 12 9F AC 7F D3 76 B8
 D8 67 7D 7A 3B 55 A8 F0 11 CF BD 11 F3 CA AF 60
 84 E6 35 13 52 31 4B 30 BB 16 8A ED 66 04 7E 4F
 77 A0 36 D8 15 4F 2B F1 1F 66 4E 3D 3F 85 A9 FB
 9C 61 6E E4 E6 0B 81 24 C5 D3 1C C2 99 18 60 38
 E6 BA F2 9E E9 35 A6 16 6B 96 BD 5F 29 C4 73 46
 A1 E4 D9 8A 59 2B 07 82 F9 22 BF CC 78 39 25 59
 5D 67 F4 47 21 70 9F B0 83 48 AE 3A AB D1 6D 87
 C9 02 03 4C 5E A7 35 5A 15 DC 5E 17 BC F0 D3 11
 06 0D 36 24 86 7F 6F 83 D6 C8 CB 4C B6 0C 03 A7
 05 B3 3D B2 1F 74 A1 1D 80 10 73 68 3F A2 91 85
 4C 14 A2 E1 1D E0 E6 95 59 53 62 E2 BA 21 DD 54
 7B EA 46 94 E6 56 17 97 88 5B 26 49 EF EA 34 9C
 B7 D9 54 61 C8 0F 22 B1 95 3F A5 83 09 45 EB 09
 CA 38 61 F5 01 59 11 3F B4 A6 A5 F8 66 E9 BA 98
 32 5C 53 61 EC C0 F8 66 A8 C3 00 1A 03 CF C2 4B
 80 D8 03 87 C5 8D 90 0C B2 72 FB CF 09 02 97 79
 91 8F 8E 44 C3 D3 3A 2C 45 D0 16 EF A3 0B 15 6B
 7F 07 7E 7B D5 01 E6 02 DE A8 27 02 BB AA 85 75
 04 CC 32 8F EF 87 8F 42 09 AD D9 10 57 CB C0 A1
 3C 75 3F 41 84 7B F9 A4 89 76 53 AF 7D DA 3B 00
 9D F2 2E A3 54 BB AC F0 64 07 80 20 32 31 4C 9A
 F9 A3 CA EA FB 30 7C A9 B5 DD F7 DC 82 32 E1 A6
 DB 15 A6 13 1E FA BE 42 69 C3 94 6A A5 22 E5 12
 0C F1 A2 55 1A 59 D2 4A 17 17 C8 01 BD 7B 2C D4
 31 E9 A4 B5 24 2C 37 0A B7 BE DD C8 CB D2 77 8B
 A5 DD AC 1F 26 74 D7 DB BA DA 22 14 47 C4 26 7A
 69 3C F8 52 9A EA CA 67 8F 68 9B AB 22 3B 64 FA
 79 84 F3 FA 1C 64 28 C2 0B 0D 03 33 01 BE AA 50
 AA B5 A1 DE AB 38 A2 C6 7C A4 E5 3B F6 5B 82 67
 8F AC B7 8C FF C6 0B 7A E3 58 E7 CB 28 AC 77 1E
 36 96 91 6A F9 CD 84 EE F6 CE D0 4B 23 5D 49 CA
 5C 2E 88 74 48 90 12 CD 58 9C 7E E2 4A 14 7D 76
 2D 1B 3E 40 7B 2B CA 49 51 6C 3D 1E 7B EB A9 12
 D1 21 26 D7 79 78 60 73 E7 F2 B1 D8 07 EE 14 CE
 58 37 AE 28 26 5D 3C 18 13 BE BC 11 02 E3 10 43
 83 95 DF 52 C9 3F B3 5C 97 85 F3 ED 6C 6E 2D 98
 59 3B 45 3A 9D CB DC 1B 56 64 32 74 06 A2 A6 56
 EA 5C 89 83 31 C9 BE 3F 75 E9 2C 58 44 5A 28 E9
 68 EC A9 99 06 B3 3F 55 99 9D 8E 35 9A 23 BC C0
 6C FF 86 14 40 3E 86 8A 7A 14 C7 62 2C 8A 20 9A
 C0 7D 60 2B 27 3B AA 8E 00 DD 92 22 E7 1B BD F7
 EF 23 D8 10 44 3C 83 C2 36 1B 8E 6E 18 2B 2F 25
 EB F5 96 E0 82 6F 0B 27 BD 31 23 C8 4C D6 FF 1A
 6C 8B 22 E7 C3 96 F8 8F 0E 2C DB AF 88 A5 1F AF
 86 91 B6 89 3D F8 DB 88 5B F7 92 A5 71 93 AC BF
 32 E9 3E 7A 64 B5 F8 26 B5 A6 9F 9A A6 A4 C0 BD
 EE 5F DD 15 32 86 61 6C 7E 7A 59 33 4B CD EB 73
 CF CB 55 1C D6 2B ED FC E4 AD 4D ED F6 09 75 CE
 09 5F 80 C4 AA 30 AD BF 07 2D C8 8B 3E F5 C3 B6
 E7 54 8F 2D F1 47 37 E4 54 DA 33 49 24 CF 63 9A
 5B BC 0A D2 0B 45 09 CF 4C 09 6D 4E E0 A4 CC 1D
 45 B3 C0 E6 4C B1 0B 3C 6C CE B5 DA 10 67 CF 76
 BB DA 23 B4 17 F0 CB 45 13 CE 53 F8 9E 31 90 95
 D1 63 68 4E 06 67 32 BA C9 A2 56 6A 17 18 CD B4
 43 60 1B 01 4A B2 B0 AE 5A 7E DC 6D B6 38 70 7E
 59 68 7E 73 02 D3 D4 18 55 9F 88 B7 07 8F D0 CB
 7C 0D 6B 5C 7B FE 40 07 59 61 F6 E9 ED 8E B6 67
 48 BD 36 D2 36 3A 67 0A 5C 6C FB 73 7B 98 65 5C
 B8 34 F3 96 B3 70 70 B6 39 4D DF 1B 87 16 EC C8
 1B 54 AB 56 C7 01 5F 2C 8B 7E C5 01 4E 9B BB 9A
 1B 31 D4 1E 8E 32 B4 0F 5C BA 63 78 13 C9 61 C6
 A7 08 2B 5F B5 49 C5 11 93 20 93 ED FA 4D 0E D5
 EB 02 C8 5C A7 6A AE 1A FA 3A 8F B5 48 F6 F0 09
 67 85 09 7C 65 69 9B 08 11 69 0C 9A 8A B8 86 A7
 AE 28 D4 19 E8 69 EC F0 1C CD 1F A6 A7 D6 CC 6F
 61 E1 B8 2B 39 1E BF 6C 0D AF 35 91 3E 51 2B 46
 82 A7 94 AC B0 C8 ED CA 91 38 58 B6 DA 40 02 BD
 6A F3 D9 31 75 7C 1F 53 7A 85 C5 A7 B1 64 1C BE
 72 08 E4 F0 FF B2 2A AE 32 3F F9 0A 22 72 70 5E
 4D DC 4C B7 B3 B0 F4 9C 7A 47 34 2E E9 AE 26 07
 EF F7 AB 13 37 35 87 31 2E 67 A9 EE 5A 61 61 EF
 05 B7 0C 1A 40 A9 53 F5 22 B2 EC 1F 4F BC 2A E9
 A4 9E 97 3D D2 4B 94 89 00 2A 27 9A 9D A1 B3 81
 24 22 07 B9 84 26 F2 DB A7 7E BC 5D 13 76 C1 AD
 0D 35 25 0D 84 69 68 95 11 29 9A 3E EB 19 38 EC
 0D FB C0 3F 68 6A 38 E4 01 7A F7 C8 AB 59 0C 85
 7B F5 11 27 AC C1 9B 95 37 0D BE 81 CF 1B CA AD
 68 D5 93 6A DA 71 13 FA D2 04 64 45 C0 FE 81 43
 87 E4 BC C5 E8 7E 65 72 5E FA 99 F6 8E 56 E6 C6
 E5 2D 29 97 55 DD 43 F2 63 DC 9A 54 35 75 69 99
 F9 0C 1F 01 F5 96 E3 7A 47 A4 FC 8E D5 70 89 FA
 3E 56 0F 57 5B 73 F7 52 AD 88 62 84 E6 2F C8 F4
 57 A8 62 3A 31 04 BC 9B F2 04 F1 61 DD E0 38 48
 B7 F0 7C A4 57 DE BB 89 E1 2F 7D E6 B8 AD 5C DF
 38 D7 0B AF 7F 70 FD 13 06 63 40 8A A8 B3 31 1B
 41 0E 59 1F D6 40 15 36 1F AB 2F 6B E0 CF A1 57
 23 4B D5 56 3D DA 47 06 65 40 0A 29 F7 52 6D 4B
 3E 48 4A F5 67 49 16 F8 29 AA C8 2F EE 02 31 CE
 15 9D 44 70 2A 89 D3 65 F5 45 90 7E 07 6C 4B 70
 B2 7C 2A A6 3E B6 C8 3B CC 38 44 E4 0C A8 CE 49
 18 C0 EC AF A6 73 1B 23 B9 B2 D3 93 7D B5 24 D2
 7C A9 DE 30 4E D4 8B 82 4A 99 74 61 C3 BF 71 56
 68 EE 8D 0B 92 D3 BD CE 5D 97 9A 5B 72 FB C2 1E
 F1 7F 6F 92 D0 07 BE 21 94 B1 61 7B 05 55 63 C6
 A1 D1 2D 6E 1F 54 35 30 E2 3A F0 11 3F E9 43 DC
 AA 3A E2 90 8D E5 E7 4E 3F 31 30 B1 18 D0 40 8E
 80 8D 83 C9 36 0D 91 C9 BA 00 B7 2A A0 29 EE 40
 CB F7 C2 EE F2 67 54 C6 F6 6C 19 BF 2C 6B A9 52
 F7 E4 1C C9 CE 97 EC 31 C1 73 A2 8B F6 4C 27 2B
 A4 3A B3 63 D1 DF 63 5F 27 81 C7 37 BD 29 4C 5F
 30 6B 4D E8 64 34 A7 4A 3B 5E 01 D7 1C D3 06 A2
 AC 47 57 93 08 18 BF FF F0 D8 5B 25 E4 E5 50 DB
 BD B0 2E D8 9F DD 5D AE 22 76 EB 07 D9 FE E9 B0
 88 29 75 4D 79 43 E5 C1 4A 31 E5 21 5A 8F 05 75
 C1 3F B6 AD 20 5A F2 5D 7B E8 5E 59 58 CA F2 67
 32 72 6B 42 EB 8B D8 74 2E 06 23 23 A7 77 BA C5
 CE 97 5F 90 C1 1A 7E A5 AA E5 6A BE DF 64 63 17
 D9 0B 2F 80 03 F1 7B 3A 5F 8F A5 5D DE C8 2C 7F
 B7 3F 41 C9 50 30 20 9A 57 9B 8B 36 6F 60 6C E8
 A5 E2 79 53 5D 0E F9 3C 66 A2 39 84 42 FA 9E 9E
 83 D5 BA 97 CF 7E 75 0B
* End 1231035083 1871889747