* LTspice Encrypted File
* 
* This encrypted file has been supplied by a 3rd
* party vendor that does not wish to publicize
* the technology used to implement this library.
* 
* Permission is granted to use this file for
* simulations but not to reverse engineer its
* contents.
* 
* Begin:
 D7 69 C8 47 24 5F 43 7A 50 8E 51 D6 11 09 C4 70
 08 D9 63 1E 2C 8B DF 85 C4 2E 40 05 F8 37 64 D5
 2B 73 F4 AC 78 C5 8B F9 8D 71 5D 1B D7 2E 06 98
 BA AB E3 16 5F 12 35 DE 8B 70 92 0F B1 26 29 FD
 15 56 D3 4B 50 E3 30 4A D0 64 EE 54 4B 5C 2A 56
 38 ED 59 3C 7A 63 E5 15 D6 92 EB 60 64 41 B8 B7
 37 EB F5 BC C1 69 B8 BE 49 61 45 1E 5F 9B 5B 8D
 8B CE 7C DE 7B C5 8D 76 83 FF 3C D5 0B C9 55 43
 1C 28 09 BA 21 DB 2E 22 5B C1 77 79 A5 AB F1 2A
 1A 20 7B BD 0B B4 F4 05 AA 68 7B 0F 04 C8 55 AC
 AF 90 D3 F6 DA C7 4B 79 D5 F9 E4 6C F5 1E 90 16
 2A FF 5A A6 53 CA 85 C7 6B AA BF 82 BB 1B 48 51
 54 FD 65 EA FB 38 ED E1 17 EB 65 19 6D 30 94 51
 34 16 0A 78 6B 16 34 49 54 CB 86 E1 60 7C EA 8D
 B5 9D F0 DF 11 70 B4 41 2B 6D 09 36 2E EE CE DC
 C0 32 9C EB 80 F2 CE 4C 08 4D 46 6C 4F 45 88 6F
 D0 6C B7 42 6A 5A E1 B3 B4 D2 AC D5 B0 8C 65 7E
 7D EA 39 1D C9 89 6C 5C A3 66 D5 15 21 17 19 55
 83 18 39 E9 F1 4E 7A 35 AE 24 09 8D E1 54 40 89
 13 76 05 6D 3B A2 2F BE BA C8 49 87 44 34 4F C9
 4F 96 05 C2 BA 5C 4E 45 5A A5 90 45 30 F4 A4 03
 E2 AD BE CD 36 3F B9 CE 32 63 94 A6 A4 FE 35 E4
 67 64 32 3E CC CD 5D C5 2B 6C F2 91 D6 1F F5 AA
 6A 3B 58 BE 5E 20 2F 33 4A CD 55 87 9A 58 C1 6C
 3D 85 AD E9 7D 19 20 E4 B7 D7 4F E2 67 76 80 05
 70 24 FE 30 AD 6E E0 F2 08 98 83 5E 8A 7E FC 99
 3A 7D 03 DF 65 83 FC CF 69 87 86 2E 12 09 6B 64
 B9 39 43 F8 62 A1 86 D8 A9 BC 2A D4 87 05 E1 F2
 91 F9 B7 1A 38 56 4A E7 5E 0E 0E C7 EC D6 96 20
 4F C7 C3 6E A4 4E 35 FC DC 76 7E 76 65 5B 4E A8
 AB 95 53 E4 15 54 79 17 16 AE 51 7E B2 C0 F2 B7
 E9 C6 5C 0C FF 50 06 FD E6 5C 06 E1 B1 16 99 47
 01 2A 77 F7 6D 39 B9 2D 73 79 60 6A 26 1E 46 BB
 21 D8 91 B3 FA C5 B4 45 C3 BF 39 08 A7 F7 61 7E
 AD 7B E5 9E B7 7C ED 61 FA AA 58 19 3D F8 6F CC
 64 D1 C5 14 21 7D 88 BC A6 85 48 F9 08 5B 6B 25
 9E 9D 8B 07 5F 78 CB C1 FF 54 F0 D6 1D 34 72 A9
 81 EF 96 B3 C7 79 E6 A7 09 75 F2 45 FE 77 4C 89
 8C 03 DF 92 C0 E2 CE E2 00 7C C6 B9 1D 4F 7D 9E
 A0 62 60 26 9C FF C4 DF 4F A9 66 A7 EC 8E ED A0
 3B 55 55 E9 41 D5 18 E3 99 DD 34 05 C6 F9 76 A8
 3C A6 7C 52 AE 80 95 84 6D B8 C1 AB 9C 3F 6A 12
 48 CD 5B 59 86 CB 2E BC 06 1C C0 40 6C 9C D6 0F
 77 B1 E7 71 EB 6E 73 5E 45 B8 60 45 7F 04 0F BE
 52 FC 54 27 3E A5 73 A3 EE 7F 28 80 A4 B7 63 D0
 19 07 5D E4 6E 9C 74 0A D5 23 C1 7D 97 36 42 FF
 17 0E DC E0 C8 DD 8A 77 5E 95 84 87 E5 69 A0 93
 70 81 7A 9A A2 F0 C7 FB 80 9F 71 28 5F 79 5C 9E
 6F A7 72 28 93 7B 8F 0D 41 8F 99 B4 A8 3A B8 F5
 46 B9 3D 27 96 5F 7B 27 2A E9 88 18 FD 1B E0 4F
 27 DF 5F B6 46 08 37 EA F9 29 46 A8 48 3C 40 51
 FB CD 04 45 7D B4 05 2B 3E ED A9 09 26 82 CA B9
 EF 1B 32 20 AE 42 8D 19 19 A0 3F 2E EC 2A DD D6
 5D 28 5E 26 93 4C 4B C1 EE 89 79 0B 42 BC 9A EC
 E6 78 59 D7 73 15 85 BD AC 59 00 0C EE 36 57 F1
 A2 1F 59 F2 4C 6D 18 52 F0 8A 2A EE A7 DE 26 11
 6A CD DB 5B 82 24 49 63 16 E5 B4 75 4F 5D 49 43
 ED 3A B3 FD 2A 24 E1 F1 61 38 2C D1 51 8F DE FB
 07 33 5C 6F 83 A2 D1 03 E6 9A 17 04 47 3E 7D DC
 01 7D 22 AE 6B 40 30 B5 4E 87 BC 75 1C 82 09 90
 0B E6 0B 51 F1 18 37 71 16 14 33 04 79 D6 B6 BC
 E5 7D A9 FD 98 46 C8 8C 80 77 60 FC 61 7F B9 E4
 C2 AC 9D 60 F3 CF 94 E0 41 EB D5 4A D3 CB D6 78
 24 F6 DD FA 67 0D 95 3E FB C0 22 15 EC 5E F9 6D
 77 D0 1E 3E 94 61 99 9A 6F 2C CB 6F 65 26 17 8E
 CB 7F F1 24 36 DD 42 2C 6E 83 85 0C FD 20 BD DD
 A6 AE 90 FF 96 FB 4F 46 F9 3D 14 29 C4 AA 05 0C
 0E 43 72 7D E3 9C A8 42 3F 3F 60 4D F4 F5 B5 17
 1B 51 F3 04 F8 AB FD 6E 29 3C F5 13 C0 4B FA C5
 C4 16 95 74 AE F7 56 77 26 45 E3 D3 C8 3B DE A9
 BA A3 83 E6 0D 04 EB 2A 61 99 BE F0 1E 3C 90 48
 9E A8 8D 64 7C 37 94 04 5C 0E 89 80 FD 2D 5A D4
 A5 9B 64 5B A4 39 73 9E FB 19 4A C3 B3 72 B5 96
 D6 C5 5C 44 C8 45 5B B3 23 77 B1 F8 B0 34 23 B3
 0A 5C 03 99 9D C4 8D 9B 2F 08 93 73 01 32 9C B6
 CF 96 DC 2D A9 8C 3D 8D 34 A9 FA 80 C3 FD 35 A5
 65 A3 9A 3A 89 ED 65 D6 9D F6 A9 BC 4B 86 C2 97
 62 28 2B D6 3A 2E 8E 9F 1D 8C 3E FB 2B 8D 83 46
 5B 41 3E 35 39 B2 5C 82 DF 9A 65 EC E4 5D 93 AE
 D8 05 6E 11 90 81 29 5F 57 21 4F 7D 54 B5 83 C6
 E6 88 75 2C E2 AB D9 76 A3 C3 D3 F4 52 98 61 FC
 22 E3 54 1A EB 1D F2 AF 5E 35 2B E0 41 AB 54 F0
 97 46 8D 58 08 24 9F EF B0 30 9C 4F C6 1F 7B E9
 A1 16 8B A6 15 59 09 39 FF 8A A8 6B 50 AE 4B 99
 05 7F DC 5A 3D A8 87 53 50 95 40 F0 59 48 CA B6
 E8 12 6F 2B 05 AC 4E EA 74 86 AB C7 D9 18 9E BB
 D7 F2 BB 1D BB 52 58 A4 4A 3E DA 71 4A 83 E6 AB
 DC 9C 65 5C 44 7D C4 C9 89 DD DF 87 C9 12 D6 90
 3E E5 D6 0A 07 3F CF 9A 1C A6 44 22 2E DF 7E 82
 1A 6A F2 69 2F 73 83 74 A8 19 ED 68 4B 74 DC 58
 F7 BC 51 7E 92 6A 75 85 44 2F 49 1D 58 E8 F5 D2
 36 43 CB 25 9B A9 6C BF A2 0B 7E 05 26 23 44 75
 94 8F C9 EA 04 CA 60 3A 7D F8 0B FC D0 7A 5A 57
 11 06 D6 0E CF 58 D6 8D 94 58 CB 36 0E 58 E3 8F
 BC C7 08 1F 4A E5 C9 3C 59 2D 4D 54 14 D7 14 C4
 9B 52 59 8E 37 1B 2E 8E A7 EC 18 11 48 B5 87 C6
 E0 1E 5E F3 C3 1B D3 E5 9B 72 F2 62 3A 67 2F 63
 7B 2E CF 90 EF 6D 75 22 CC 85 47 84 08 A5 B6 01
 EB AB AA 7A 9D CF D0 70 AF 97 D2 23 2A BB E3 D4
 D8 D9 1A 87 6C 1C 1D EB C9 EB 72 3C 6F 1F 6F B5
 5C FF 49 67 E4 23 D4 1F 4C 72 7A 8C AB F9 DA 7A
 A8 61 30 6A 34 0B AC 04 C9 CE BE 59 F8 49 7A CA
 AE 87 29 6C BA 1A 6A 11 2F 83 A4 2E 4C 44 23 3E
 51 F4 CE 03 35 C2 93 18 16 B4 BD 66 D8 1B E3 99
 CA B5 5C 06 E3 27 9D D8 5C 68 9C A2 6B E2 66 02
 81 66 28 CA B1 BF 77 9D 47 EB AC 38 8A 15 82 2E
 B5 41 DC A6 51 02 7B B5 A4 A1 10 0A 1E 81 2E 1F
 C2 A7 DE 2C 4D 92 A2 1A 49 51 09 F7 45 99 E6 6C
 EB 7E 43 E2 63 3D 72 FC 04 33 D9 13 12 8B FD 18
 9F 58 BB D2 84 1B 6C 2E 39 49 3A B6 87 62 0F 40
 0E 47 43 B2 56 03 36 52 39 C3 EC 1A 94 56 C2 C5
 2A 1F BF A2 24 2E 4B 92 EC AC D2 25 D3 42 27 B0
 54 11 B3 93 88 93 AD 03 67 E1 30 17 D6 6F EE E0
 2E 2C C1 7C 9A 9A AF EF B9 4E 66 17 2A 95 1E E2
 5F FC AE 1D 0E 09 24 5B 0A DE 23 39 2E 2C 94 B9
 F8 6B 40 31 69 DC A6 3A E3 69 F4 38 47 24 BA 7D
 72 1D 79 25 EC 64 43 F3 A0 41 4E AA DF 82 94 79
 A9 43 79 06 23 AA 47 F6 B9 AC CD 8D 23 73 93 6B
 A7 07 FD 74 A7 21 E1 AC 34 BB EC 88 A8 4E 4D 4F
 86 84 4A 16 4C C1 06 2F 44 85 77 C5 0D 38 69 AF
 92 49 74 A3 F3 A3 22 E6 DF 20 DC 70 0E EA ED 24
 2C A6 39 E8 76 62 1F 94 77 30 5B 21 7F 53 D2 16
 36 94 22 62 62 A9 01 D9 15 6B 5E 34 34 76 26 98
 1D A3 AE 28 7F FC 70 41 7B 86 96 D3 F5 05 F0 B2
 06 05 EE 81 42 D2 80 39 6B 65 8F 70 A6 EA FA C2
 DC A9 5F AC F3 2F DA 27 D3 46 CA BF 39 54 0B 87
 04 41 10 33 C1 CD A8 34 50 6C 71 03 7C 3D 98 91
 8D 05 D2 66 42 B0 C4 F8 EA 90 34 86 E0 1D FE 3B
 14 89 B0 FC A5 F5 B3 92 CF 52 4B 8F E0 43 4B 8A
 88 27 0B 98 E8 CF C7 13 B6 11 2A 45 D6 7C FB 3E
 C0 EF 04 AD D7 E5 87 58 41 A1 E0 AF DA 91 99 62
 61 55 43 E1 0C 32 E0 17 EA BB 46 89 86 15 CA 91
 3E 6C A8 E7 AA BB 7B 9D E3 9B B9 1D B1 67 B6 6B
 97 B5 23 BF 86 22 9C 3F 28 3B A5 C6 7A 91 3B C0
 16 05 D4 E9 01 4B 72 23 02 4F 0D C9 3B 45 EA 87
 BE D4 DC 17 B8 50 ED B4 F9 BD FF 07 FE B2 CC 66
 17 6B 3F 15 71 F2 82 BB 5E 1E 80 65 9D A2 A8 90
 81 45 76 CC 33 23 C0 51 ED AF A3 9F 9C 48 89 0B
 E0 04 F3 01 6B BE 68 3B 36 18 01 FF A2 BE FA 61
 6F 6C E4 9D 87 90 2A AB 8D 6F 88 26 C3 6C 29 6A
 A4 23 C7 07 42 89 5D 3F AA A7 A6 93 09 51 7E 97
 6D D9 35 DD C6 36 59 D8 AF A6 1E 2D A4 A1 7A EF
 4B 7E FC 30 6F F2 CA 8B A8 AF 56 64 F2 BC 0A 91
 04 D8 72 72 E2 93 2C 58 42 3A 5C 41 46 9A 99 B0
 2F E4 DF 80 1A 5B AD 68 FF CF 7E A4 6B D9 21 3F
 DD 6A 1B 3E 5A 65 84 7E 13 6B 85 F1 C0 4D 5E 84
 04 BC ED E0 9C C9 59 75 EB 4C C3 75 B3 F7 71 C6
 65 0F F3 20 C4 34 E9 8A BC A3 33 93 D1 CB 52 2B
 CD E5 B4 4F 97 B5 AF F9 8B 01 1F E1 B8 E3 68 D9
 4C 60 4F 2E DF 70 8B 7A 4B 61 D6 A2 1E F1 38 3B
 0D 81 38 16 5E 2A 23 C0 B8 69 30 C4 36 E1 12 B6
 BE 6C B8 A1 14 D2 4E 8A 02 B8 79 B4 AD EF 49 8E
 2E 78 A4 6C 14 10 2A 53 F8 28 7A DB 8F FD D8 13
 C1 6B 85 59 D6 98 D9 A6 BB 9E 91 87 D1 69 A5 34
 B2 3C 5F 60 C4 B0 8C A1 62 71 5E 64 1E 9F 8D B0
 6A 5B 58 F6 7C FA 39 E6 26 96 40 DA 1B 2D 3E EE
 47 DC 4C 2F 3A B8 BE 44 6F 58 A9 E7 FE 27 7C D6
 7C C1 DF 59 EB DB AB 6D 21 49 6F 03 0A 63 28 D2
 41 CD A5 77 C7 A3 7B A3 45 0C 73 45 31 C2 BB BE
 C2 F0 4C EC 95 D3 A6 9B 7B 30 A0 5D 90 E0 EF 3D
 FD 28 03 64 CB 49 C3 2F 72 64 ED B8 54 F3 2A 57
 94 25 8E B1 0B 8E D5 95 4E 10 1A A1 C0 02 CC B6
 88 4C BD 52 BB 55 6F F5 3F 74 BC 77 68 EA 91 16
 8D 64 DF D8 9A 12 00 E0 35 40 60 EF 4D 8B D2 D6
 A6 4E 66 6D 98 46 1A 32 10 A2 9E F7 1B 4D B1 0B
 29 20 76 1C FE 43 F3 59 74 83 6D 59 E7 FE 51 B6
 4E B4 FD 2A 59 8C AB 93 46 98 6A 57 C9 2C 3E BE
 57 43 5F 1E A0 0D 5B 96 8A C0 29 E0 58 A1 38 29
 90 90 6E 37 FF 38 45 9A FF FB C5 CC 2E 79 51 93
 B4 A7 C7 84 F6 90 DE 5D CB D7 C9 C0 F4 F8 6F C2
 28 21 7F 73 50 D6 AF 52 74 FE 61 CB A7 3D 92 45
 89 8A F7 05 EB 42 B5 C2 55 D7 A2 7B 50 5A DA 5C
 42 57 71 A8 5C E3 44 C1 44 6E F7 02 DE 8C 15 C7
 BB 99 4F C2 C1 32 D4 38 C3 DF 0D 41 66 8B 0C D8
 AB A3 FA 71 B0 AA C5 1A 0A FE 47 F0 D0 F9 81 7D
 6D 86 F6 A9 AA 34 00 E7 ED 8C 0D 1F CC 12 FE 3F
 58 54 A2 C7 CB AE F2 DC 27 91 67 CB 7A 42 4A 0F
 58 A2 A6 FC 27 CA 6F 0E C2 AB AB 03 2C 02 04 32
 C0 3A FE 0B 0E A3 6B 33 15 38 00 D0 B3 33 30 FD
 DA 29 08 6F E0 CB 97 21 76 DB 97 60 92 50 3C 5B
 1A 57 3C CC C3 9A 00 9E 30 03 87 1C 4C 37 8A A0
 8F EE F2 CD 5B 40 A2 84 81 AD 42 1B 3A D8 91 F1
 BC 1E 70 5B 31 A1 F5 00 71 2D A0 55 4B 50 47 34
 E1 8D FA 2F 60 CF 96 D0 3D CE FA D0 C4 E8 35 A8
 9F 7A E0 3E F7 9A DD A8 A4 4A 30 69 CC B0 1F 39
 2D 47 F9 64 7E 81 04 25 76 D7 E7 C9 A5 B0 4B 3C
 D4 56 B4 7E DC 7B B9 8A 75 9E 0C 48 23 2A 45 5E
 13 CC F0 A3 96 32 B4 8A 01 98 82 24 8B B7 6C 24
 08 59 3C F4 91 64 A3 5B 63 77 AA A1 4B 70 FF 44
 F3 AB 65 64 88 07 BF 24 FF A0 6B 19 03 11 DB 23
 0D 5C 02 BC 0D AF AE EC BC C8 BA D9 1D 42 E8 4A
 24 DE EB B2 15 59 1D 2F 93 6D FC D4 C2 F1 80 DC
 C9 19 38 C7 A7 07 4B 5E 47 9E FF ED 7D 54 35 49
 16 4D AF 8C 4C 13 23 44 14 C4 9B 2E B8 07 DA 9A
 C0 09 EA 70 10 CA 5B CF FF 34 5C 8E CA 35 9E 67
 A9 77 F7 08 73 FD 73 0A 6B 36 B0 AC 80 0F 46 7D
 00 57 C2 E2 B0 85 E4 3A 8D AB E1 D8 3E B3 63 40
 6D B4 ED 71 F5 6F FF 78 87 B0 45 AC AD 75 D5 C9
 D7 9A 12 D0 C9 5E 1D 7A 07 3A C8 39 B6 4E D8 E2
 08 0C D1 3B 20 7C C9 B2 8B BB C2 59 69 96 3E 1F
 F4 5B 46 62 D8 70 D9 FD 3B EF 3C 0F 28 FF 5D A3
 15 0B 2B 66 F6 56 9F A5 2C 22 8C 3A FE A3 00 2E
 AD 09 BF 4C 46 4D 55 31 47 3B 56 C3 6E 43 A1 64
 2A D1 F2 DE 86 01 0D D8 4D 91 18 E0 36 7B 69 8F
 BF 79 FB CA D1 1F 12 2F 2C 7D 5A 15 EF 46 54 D0
 28 BF 17 98 D7 AD D4 0C D2 FF 6C E8 18 79 A3 4F
 29 B3 BE 27 49 3A 32 B3 E6 C5 ED A0 04 9C 14 80
 D8 8A FE E6 24 F7 FB B7 3E 6B 64 2B 49 A4 32 76
 BC 64 2B 1A D6 AC 1A 7A 4C C9 A4 15 5F A6 A8 60
 CF 73 8F 3B A9 69 2A 71 C3 96 8B C3 72 76 20 06
 90 A4 CD D6 E0 9A 2E 53 8A C8 F6 03 B4 7B 6F 6E
 9C 32 CA 21 02 FD 5A 30 BC 1C 88 8C B2 C8 BA 0C
 72 5F E2 0F D8 49 1D FB AD 7B E7 8A D1 04 9D BF
 08 5F 7B 54 0A F0 43 7D 7C 2A 60 EF A1 A7 05 AE
 8E FB AE 6C 34 F7 16 90 09 BE F7 F9 C4 12 FE 45
 6E 79 CA DB 21 9A 6D 96 B3 B2 BC FF 3C 3B AC 1C
 37 D7 FF 4D 9C 73 8E 35 76 24 4A 56 EC 9D 02 33
 8A 33 D1 02 75 AF 29 6E C0 EA 3A FA 8D 37 68 80
 5A A9 CB 3C FC FF B1 AA FF 2D 4B 1A 87 1F 6C 9F
 A8 26 46 14 58 0D 3A CC B2 A8 0B A9 4C F7 14 EB
 18 1B 71 B6 CC 91 E1 99 D7 D7 8E EA D9 36 56 C5
 5E 91 63 86 BC 90 C8 17 C1 58 B4 1A 9D 09 FA 28
 40 A2 B6 BB 7B 76 4B 1D 55 7D C3 9C B7 EC D1 C2
 AC CE 17 38 DC F0 AB A7 FA 8D 63 5D C2 23 18 01
 25 E1 00 C7 84 01 62 A3 71 97 9D 91 27 BA AB 20
 FB FD 9E 92 4A 92 9C CE 1B AD 75 9B 9E F8 72 50
 41 2F EC B0 20 71 E0 7D 8E 4E 35 3E 2C C3 39 9D
 EC B7 1A B7 43 9D D4 1A 4D 6A 52 FF 17 03 30 6E
 2A 10 2A E9 A2 E6 14 EF F1 EF 57 3B BA 71 06 25
 E0 35 BE 92 94 71 37 BF DF 82 84 EB AA 7D BD F1
 A7 01 60 70 8C 7B C6 2C 5D D0 FF D3 8A 7F 53 07
 0D 9C 5F 89 7E 31 EC 44 DF 5D D6 28 D5 35 4C B2
 3C 12 F7 CA 83 3B 50 D4 25 DF 83 2B 02 CF 52 44
 04 9E FF B5 2C F8 B3 68 91 B2 32 B3 E9 B3 23 B8
 50 34 A0 EA 33 C5 6D 0C 6D 21 AE AB 5A 98 FA B9
 2B CA 90 06 2D 10 63 A8 CC BC A0 33 AC 01 F1 B6
 67 01 9B F1 DC 61 9D 1E 8A DE EF BE D1 4E E8 B5
 EF CB 78 3F 65 9F 51 02 BE 41 57 0A CB BE 60 4A
 58 58 BF 09 1B 7B 94 9D FA DA C0 7C 78 F6 32 7D
 64 07 E5 3D 75 21 6E F8 87 55 F1 D7 EE 17 F7 4B
 38 45 04 C3 C5 40 B2 82 B1 CD 7E 9A 62 2A 7B 71
 77 CA 8B F4 EF A5 D6 16 80 43 92 AD CE C9 D5 80
 6B 78 5B 50 2E 9E 47 F1 4D EB BF 36 61 A1 C5 A1
 6C B9 76 27 40 60 3D AC 17 62 B0 97 21 1E 54 50
 DF FA 00 EC 3B 74 95 1D 2F FE A4 37 7C DE CC 17
 90 10 1C C1 D6 00 CC 02 BA D3 2A A2 E6 17 B3 88
 E5 D4 C6 60 FE BA D8 AD D2 89 22 A1 35 8F B6 1D
 09 06 ED EF CC 23 4C 5C B8 13 25 14 C3 2E BB 17
 CC 3E 52 66 01 1B D7 44 B2 C5 94 4A 16 C1 84 F2
 F1 CE 75 17 E1 87 31 BA 34 9F 23 F2 1C 3A 84 B5
 D8 13 2A EF AE 12 CF 36 92 15 1A 29 7E 71 D0 C8
 A2 2F D1 71 97 60 C1 F0 1A F3 09 50 D8 12 E9 80
 61 3A 5D 01 4F 77 47 10 86 3B D8 98 3B 31 2E 4E
 3D 79 90 1D 32 6F 8F B0 E7 04 BF DA 3B D8 18 62
 F7 65 B8 DB 05 C9 E7 C7 C4 95 B2 BD E5 3A 8E DB
 F5 5F 39 3A 2A ED 09 C0 7B CF F8 E2 30 4E 2B 1C
 77 A9 E4 EC C7 78 E2 64 AA 30 91 0B B1 F3 50 58
 13 4B FD 7C 57 FF 8E 2A B5 AE 79 DB 12 57 B4 1C
 4F 3F 9C 1F 44 F6 D0 E1 2D 38 8F A9 66 AB 3B 8B
 C5 91 9B 89 8A 49 92 49 52 F5 44 DC 4F AB 14 73
 B4 03 3B 66 D8 78 13 E3 57 66 73 56 1C DF B9 67
 A2 04 2C E6 8E 98 1D 27 8C E5 1A B8 DE 9E FD 3A
 BA 16 10 C3 0A 6A 61 59 57 38 FE 49 46 8C 01 A0
 3C 7D 41 3F 0E 83 AB 42 79 29 20 E7 FE AF F8 AA
 5D 03 D0 39 A1 5D 2B 6F CD D1 8C 73 38 D7 38 D9
 B2 53 C0 F2 E0 DD 0C F3 88 AF 5A C2 B8 E4 C0 A2
 85 5B D8 60 68 28 E4 FC 16 83 B9 4F 60 3C 69 52
 CD C5 3E EB BF 87 ED A3 B5 DD B8 6B 54 47 66 80
 71 F4 C1 CC 7F FA 28 83 10 3C F8 82 33 8F D1 94
 F5 C9 2E 9E 62 5C DE 62 17 0A 78 30 05 F5 8C BD
 EF 53 BE 4C 41 4F DB 66 4C 84 63 2F F4 05 9B 02
 27 C9 C5 B8 71 DD 41 3C 1D 34 AC 6C 33 72 DE 74
 8F 96 B0 8D E9 6C 68 48 91 DD C5 70 A3 A3 71 15
 D4 B9 07 6D 46 91 7A 70 ED 1F 20 8F 45 33 FD 63
 C2 6A 4B 76 2C BB 78 54 78 6E 2C 62 6D 42 D9 92
 78 56 E2 D7 88 CB 48 CE 14 13 53 E8 E4 67 74 8D
 C0 D3 63 8B 2F 3D 30 5C C9 94 4D 21 FA 4E 62 78
 09 4D 1A 83 AD D4 3E D0 E7 56 7B 4C 9C 22 0D 60
 86 37 CA 20 8C 0D 9D C7 5A F3 89 A9 67 74 C0 69
 1D 00 3C 2A 25 8B DD EE A4 15 95 8E 80 C8 FC 0E
 0B 23 27 02 A2 94 86 9F 78 81 65 E5 5C CD CA C5
 B5 C0 38 B2 5E 8C 61 32 C5 07 59 6D 14 73 4F 8D
 73 90 22 FC 04 74 E2 BE 81 4C 15 F6 CF DA C0 0B
 2C 3A 60 3B E1 0F 1C F9 AF 9D D7 4B 0F 25 D0 B8
 25 D5 4A 74 D4 D8 CA DD 2B 32 A3 70 F1 DC E8 91
 C4 6F AE 15 5E 11 94 33 9C 15 2E B6 6C E2 F1 53
 7B 5A 66 5F 24 51 D0 0F 21 2A 42 4A 6E 77 0A B3
 83 D6 74 0A 93 6D D7 9B 4A 9E 47 D6 FC C7 64 F4
 F4 D8 B9 10 39 62 BE 4B 56 DF CB D9 3C 98 2B 67
 3C 9A 81 9A DB 5C DF 23 09 62 E6 9E 58 67 7C 2F
 59 9E FA 7E 5A 31 0B 89 06 DB 5C 12 1D E6 33 CC
 E1 B4 34 71 E9 EF 53 4C 86 3C 1E A8 FD 0B 33 B9
 0E 75 AA 09 A9 97 9A 0A 7A 74 98 D6 7C 9E 67 FA
 A9 6B DB A8 02 95 EA 80 09 C0 D6 A4 0A 5B FA 67
 21 CE 1C 6C 84 A6 DC DA 58 51 AE 9C 0A 6B 55 91
 83 CE 0B 85 A6 6A 7C F0 AC 20 7D 28 0B 0B 3A A4
 E8 E2 5D 75 F1 FF 5A 43 8E 15 E3 44 10 E7 48 78
 02 3C 2F E0 97 BA BD 5C FE C7 5D B1 23 FF 13 F9
 AA 91 4E F4 96 1A 98 73 FA A0 F1 5A 44 26 CF D9
 1A 8D 51 4D C6 AF 18 23 16 06 33 5C FE F0 A8 A5
 97 15 06 BF 28 FA 97 90 C0 EC A2 49 C7 0A CC 9D
 F6 2D 83 72 34 CA 9C B6 51 BA 33 D8 AC 95 1F 0E
 9A 18 76 56 63 54 88 F9 46 B1 1A CB BF 33 CD 14
 EA 47 CB A3 03 BA 0D 1A DF A9 09 19 98 50 00 63
 D8 E6 E7 1B C3 82 A3 B5 EF 07 42 16 70 22 05 45
 9F 98 DA 98 3C 56 E6 87 60 B9 F1 E7 B4 B4 A9 D0
 F7 79 39 D6 49 D2 87 FD 6B 08 54 03 98 85 3C C2
 8A 84 A1 48 57 08 DC 5B 64 47 70 02 0B B4 AF 65
 EF B1 72 91 88 D4 17 D4 71 97 2E 94 C6 D6 7D 59
 EF FB B1 7B EC 87 45 25 22 1C E8 61 AA 4B 28 28
 7D 73 42 4D D7 F4 82 65 CD 43 7E 13 CB 8A 46 36
 DE 9E BE 47 BF A0 F3 34 C3 32 66 41 CB 3B 48 C4
 8C C2 27 4D E9 61 6D 28 6E A8 A7 30 06 F8 46 BC
 B2 0F 80 E3 00 52 86 AA F6 0E 4D E9 82 60 73 9D
 81 38 60 D2 3E 01 36 DC 9C B3 9E C5 69 E2 F4 F8
 64 43 BE 99 E2 00 2A 13 D9 9B DB 20 A5 F2 7E C1
 65 22 17 EE 8D B4 66 B7 7F 05 91 0F 76 A9 DB 66
 0B DB 70 93 3D 41 F4 C1 A6 FD FE 67 4C 99 07 3F
 35 3C E0 97 94 65 80 2E C5 34 20 49 71 3B 8D F4
 3D 9A 24 DA C7 06 BB 9F 06 6B 70 F1 58 7C 5E C0
 CD 05 B0 CF 0D 07 B5 6E 35 21 EC 27 2F 79 5A C6
 1C B6 1D 39 24 5E F4 04 B6 3C D3 58 7D 86 99 F0
 54 02 A4 0D 11 CF 2C CE D4 A0 03 7D 73 95 59 15
 33 24 2E 81 25 14 08 F6 3E 1F 82 29 26 1C BC 26
 80 CF E5 9F 52 7F 6C 86 8D 8E 60 1C 83 A5 41 63
 1A 48 51 C2 1B 90 17 F3 AA 78 CD 14 5E D5 07 04
 32 09 74 01 61 89 32 A8 1B 6C 60 C1 3C A0 36 95
 DA 2D 7D AB 41 77 9A 6B 0F CC 1C EE 76 DF 20 D6
 17 9A B9 C5 D1 AE 53 81 1E 6E B0 2A 37 5F C4 6E
 CB 03 E5 42 6B E5 1D 33 CE 1A 32 FA 7D 09 76 F4
 59 F3 18 1C BD 21 5C 69 6E 81 89 82 A6 E3 66 69
 92 7C 48 58 6F 30 C9 9C 70 87 57 A9 21 C9 14 26
 CE 4F 5A C1 32 32 F7 22 06 5E 35 22 9F 70 97 43
 96 6D D4 B2 A6 EC 0B 9C 4D 5B 07 AC A8 FD EA A5
 5F 4D 8C 44 EB BD D5 DB C3 19 AE C6 A0 86 AE 2D
 DB CE C6 7A A2 20 45 B5 8E 0C E2 74 7D 9C 73 1F
 22 52 24 2F A1 49 6F C1 6D BD 00 3C 71 94 1F 8E
 F2 33 18 DF CC 7F E0 CA 32 A5 E4 B1 84 3E 1F 3B
 82 C3 90 7D 11 9E 12 A6 1F 8C 46 B4 8D 99 DB D7
 F9 6C 46 7C 42 10 19 A6 EF 6D 2C F3 5D AD FD 32
 B8 70 EB BD 4C 37 F8 DD D1 B3 A5 2E 74 F1 F3 10
 8A DB AB 20 9C F5 72 74 B8 BE DF 2F A2 58 0B 71
 FB 9A EA BC E2 4F 07 64 7F 7F 61 86 25 CE A5 4D
 A7 16 9A 5C FD 3D 1A 53 45 49 14 22 11 C8 46 B9
 37 CF 93 B2 59 9A E0 09 04 96 A2 52 A6 19 E4 A9
 5D D2 8B AE 01 CC 3D B8 04 FC DF 17 96 D1 E3 7B
 A3 E7 BD CD 0F C5 C1 87 56 11 F7 6B E4 3B 47 A6
 C7 2C 7A B1 9F 08 18 5E EA AB D2 18 69 D4 B2 7D
 83 63 7C 2D 92 14 4F 34 A4 55 FA 9E B3 C0 85 94
 A7 57 15 EB 8D 94 4D 15 79 92 B0 CD 2F 8A 41 71
 59 67 E3 EB 89 AE 51 2D 2C 53 45 58 DD 64 B9 35
 57 DC 8E D1 83 42 06 AF EB 2D 34 69 31 CC 30 C9
 63 8A 07 F6 DA DA F5 3E B2 45 CB A6 36 A8 BA 31
 45 0A D8 72 75 AD 43 0D 81 C2 BB EA 8F 09 EE 3F
 67 A5 8F 72 6C 4B D6 CC E7 D6 0D 3C 47 4D DA 72
 92 3D 1F 3C 4C 0C 81 46 5C 90 A3 31 3A CA 32 56
 3E 36 1E 87 E1 4C A1 36 53 B9 D5 5E 9D 71 B5 FF
 7D 9E 91 80 85 84 38 A5 D0 C9 A3 E4 F7 8B B3 7A
 29 75 8E 58 69 76 31 66 B2 80 40 B3 06 8D AF C4
 79 E9 B0 8D B5 78 C2 32 8C D7 85 8D D3 EC 89 E0
 C6 62 50 BF 7D C0 C7 53 B0 69 37 5E 5E BE 34 18
 C7 05 A3 B5 6F C3 5E 59 20 14 17 07 D7 03 D9 52
 8B FD DB F6 56 D6 9C 23 77 4D A1 24 CE 85 D8 88
 84 C2 29 40 F2 98 2D 14 92 AE 37 3C EC 15 44 B5
 D3 8C EB 76 B9 28 16 4C 65 3F EE A1 91 94 35 B3
 6B 95 1F 48 79 31 0D 40 DF 4A 92 10 ED 98 42 59
 15 6D 6E 6C 95 72 59 8A 2F 3B FD 4E A3 96 3F 88
 09 65 85 33 8C 32 61 65 38 F7 00 7A 7F 3A 89 E6
 B4 08 E5 C9 89 CD 18 1B 6C 27 31 2C F6 03 15 53
 78 22 85 D2 A0 19 6E A3 9E 83 16 BD 07 DF 3C 28
 0B 0C 28 D3 18 4D C2 EF E4 B5 F7 16 9C 64 06 8B
 83 31 1E BB 69 BC D9 03 78 87 D1 37 B0 9A C7 04
 21 05 BE C5 36 B8 5C A3 72 AC E9 33 1C D9 8C 49
 00 DA BB 97 E3 7A 0A 87 A9 83 9F C5 F4 52 26 F2
 10 E8 EA 54 BE 33 33 87 1A 8F 39 E2 13 D1 62 16
 E3 79 A4 81 45 5E 15 D4 65 AA 34 E5 AD 68 7F BD
 E3 2E D8 63 01 12 6F EB 6A 15 C5 16 D2 80 B1 B3
 3D A6 3E 21 D8 91 6B 94 3F 80 0D DF 70 8D 33 88
 F6 D5 63 D5 12 E3 99 E7 E9 AC 22 A0 5B 10 EB 70
 2C CE 53 DD E3 4C CD 99 AC 80 29 96 96 B3 2B B0
 58 99 FB 1E C5 CA C4 9A 90 88 53 E7 DE E1 D5 4A
 34 91 4F 46 75 DA 13 76 F0 C2 48 98 32 CD C5 15
 60 E1 22 83 D2 43 B5 64 FE B1 EA 93 9F CB 8B C0
 05 8F 53 37 E7 97 5F DA 87 8E C4 71 BA 3F C0 99
 BE 16 0B 1F 92 AC D0 E0 ED 67 D3 78 DB F9 E2 0E
 F5 83 50 DD 29 3B BA 02 0D A8 BE 28 DD 7B 12 98
 D2 3B 1F 60 DE C9 D9 56 90 33 A4 C7 E0 3E 28 CE
 46 E9 67 84 46 B4 83 B6
* End 490070754 2574197573