* LTspice Encrypted File
* 
* This encrypted file has been supplied by a 3rd
* party vendor that does not wish to publicize
* the technology used to implement this library.
* 
* Permission is granted to use this file for
* simulations but not to reverse engineer its
* contents.
* 
* Begin:
 0A 59 6B 78 E3 E3 23 42 22 2F B1 45 56 43 4E 1A
 E7 8E 54 9E A6 2A 61 3E 9A 4D 85 82 C3 A3 84 A2
 68 9F 8E A4 51 69 67 7D 61 74 02 C0 B0 D6 96 69
 93 F4 CC 72 04 C5 DB 28 4D A0 96 36 EA F2 BC 0E
 48 C0 99 29 C1 D6 4A 1A 30 C5 00 C5 E2 00 80 62
 2E A5 7D 75 C2 17 80 D9 24 72 51 83 78 9F A6 C4
 B4 B6 C1 F1 90 6E 7F A1 C2 F3 8F 1A 14 BB CD 90
 CC 6F 15 78 C3 CA 77 F3 5B CF B1 A2 23 F6 17 D5
 ED 5D DD 7B 1E 2B 2A 62 3C 41 A1 6E 7F 11 0A 71
 11 8E 20 85 21 41 61 18 7C EE BB A5 83 01 97 0B
 38 D9 23 F4 76 06 3B 24 5E 5F 0A 57 F7 0A 12 D1
 86 D0 52 9E 66 1A AE 12 A8 8B 51 27 77 B5 58 04
 DC 0E DA 72 11 2D 5C 42 19 83 06 7C FC D9 D0 1E
 4E D7 BC 6D 6C 20 2E 80 38 F3 04 BF 1B 94 0B 2F
 8E CD 6A 00 A8 47 1D 70 CB 3F AF 65 80 DC A9 84
 AB 8F 41 F8 DA 17 8B 94 AC 65 F8 AB CB 02 F0 A0
 FB 90 AC 9A 2F B6 E1 0A 0D 3B 29 AC 7F 3F 67 3A
 8F 52 B8 9F 14 8C 4C DD 4F 5D 86 AB 37 F5 DB 4B
 F1 A7 41 2B BA 33 22 7C E0 31 2C 4A 1D EA 31 35
 BC 9D B2 AC 98 C9 B9 9D 0A 5A 9D EF E2 3E 8D 1C
 11 40 35 CD 5D C9 99 33 CE 9D 96 F8 36 6F 35 59
 1C 12 3D E7 FB 11 23 57 99 8F 9C 7F 0A 1D 5D 50
 EC 77 9C F3 87 11 C0 E5 4F E2 B3 A4 26 7E 58 B9
 F8 97 E2 64 AC C6 93 09 DA 81 A5 17 5A 5C CB DC
 B0 44 F3 49 20 6B A1 60 9B 80 0D 8E 45 B9 15 50
 CC 35 30 9F 4C 53 E8 00 05 21 BE 1B 5C E6 4D ED
 DD 6D 2B D7 BE A4 3A 1E BB F7 6C 07 FE 0B 11 F4
 FF 8D 15 0E E8 C8 9A 67 25 F2 45 FF 0E 0C 0E 3F
 A0 D3 F5 F2 B5 51 0B 12 CD 8C B0 C6 A0 89 A2 70
 36 E0 05 BA C1 8F AF F1 34 63 0E 56 87 F7 3C D4
 34 4B AC F1 B0 11 0E 6E AE 89 97 A8 E6 40 91 08
 87 2F 3B A6 FC 57 6F 9F A7 E1 AF BF A9 95 8B 15
 4F FC 51 0B 3D 95 A2 DC 1E B3 78 F7 C8 EE DB EA
 00 62 C8 2F FB A7 EC E3 24 96 B6 F0 82 03 47 E3
 65 76 78 25 2B D5 05 6B E6 65 5B 7B 59 EE 72 2B
 8E 5D D7 DE 95 22 02 BD 16 7F FB 13 4F 3D 0E A8
 C8 06 DE FF 9E 57 DF 49 B3 8E 99 5E 75 F9 91 74
 26 BD 51 F9 17 12 1C D8 4D 6F 82 A0 EF 51 42 46
 06 1F 96 2A EE AE EA ED 93 4B DF B6 3D 29 D6 4C
 86 2E 3A 6E 07 8E 32 03 58 B3 FA 5D A2 D7 74 2B
 1B A0 68 15 F7 F5 1D F5 2A E6 AC 50 3D C8 09 EC
 8F 46 8B 8A 78 B7 7C 34 37 B1 E1 9A F1 EF 7E 3C
 5E BE 81 62 4A BB FC 30 28 43 B3 65 0F FE E8 56
 6D 52 57 48 3E 7D 12 E9 9A A8 D6 F4 68 70 DE 57
 12 D3 E1 D0 CA 98 16 1A 7E 7D 7C DF 86 15 C6 2D
 8C AC DB FD 8D 1C CE 15 99 84 54 B8 A6 F2 39 24
 48 AB 33 F9 B5 E1 E4 48 7E FD 6C 51 44 E0 14 63
 9A 9E CE E7 3F AE 02 39 71 40 05 EC 13 3D 12 0B
 9C C6 41 F8 6E BE DE 73 51 5F E1 4C 85 45 26 3B
 89 EF 2B 20 56 55 21 5F C3 41 94 CD 67 E4 1B 67
 6D EB F5 D3 90 3D 50 DB 9E 49 36 76 05 B8 CC CF
 0E 7B 68 47 FB 75 74 9C 5A 2B DD A1 31 E7 E6 E3
 8F D2 31 10 A1 37 56 14 28 52 86 BE 07 05 A5 40
 B4 15 30 EF 41 9F EF 40 91 4A 35 F9 44 18 77 F9
 7E 70 29 EA E9 6D CE F6 AD 61 16 A2 CE B7 2A FC
 1B 8B 8B B2 C3 3A E5 32 80 57 B7 70 9C 09 F8 99
 4C A6 B5 FA B3 DC 8E 25 3A 83 59 8C 9E 89 62 75
 3D 4E AC F4 2D 90 0D 48 BE CA 26 CD 09 81 F9 8D
 57 8D B8 42 4F 0C 32 9B 45 86 9E DD EB 3D B7 D9
 4F 0B A8 BE 50 76 9B 90 C8 99 E1 69 DB 9F B7 1F
 4B 00 DB DC AF 8D E0 65 F4 4C 4C A0 6C BE 07 7F
 25 E6 7B 19 D8 16 7D 68 04 CE 2E 6D 0F 89 8D EF
 5A 87 49 25 17 78 5B 1F F9 46 66 D6 A2 9A 48 C6
 AE 3E 35 87 EF F4 B9 44 79 CA BC C6 23 64 2C 71
 92 4C 95 E7 11 73 97 6E 8F 58 EA 99 E9 6F 3B CB
 3F 45 4D AE F9 F0 FD 90 B1 9E 47 6F 9F FF E4 DA
 A1 B9 63 06 3C 67 21 A4 86 9F 6D A0 D8 18 CB 45
 98 DC 2E BF AC D0 C2 94 0F 64 98 89 76 8E 47 E3
 C6 5F FF 28 28 BC 42 76 1E 88 F0 47 EC 03 D2 4E
 6D 05 66 87 B5 1E C6 5E 4E D0 2A 6F 34 2B 0D 91
 3B 4C C8 80 4D 1C 26 E4 41 C2 E0 1D F0 88 D0 75
 3A 46 33 37 D8 D6 14 EC 99 D3 83 47 55 3D 6A A2
 9C 3E 0C 3D 6E D9 20 29 5C B6 8B D8 4C 9D 56 CA
 AE 26 1C D6 AF F1 3D 49 0F F8 C9 6E A0 78 41 55
 9E 94 94 E1 7E 49 D8 7C B3 B6 22 B0 87 86 85 33
 E6 1C 79 3A 7B FF 8C 37 DC D0 5C 25 8C 28 E6 09
 D5 6D 39 55 8C CD 94 19 48 D3 CA EB 61 72 BC 93
 82 FD FB 0D 96 BB F5 72 79 A3 35 D6 53 4A 3B 20
 55 3E 93 E7 7C 08 0F CB 1E 0D 15 43 D2 6B FE F8
 1D C3 E8 EC 67 CB FC 53 B7 E0 9C E2 12 F7 00 56
 C7 63 F0 77 BC 70 21 AB DE 5F B8 DE 01 CA 81 56
 67 C7 A5 AF 40 54 E3 4E 5B 36 B0 89 93 F8 35 E6
 DE B6 30 53 AC 8F 2B 41 BE 95 F2 0A 8B 4B BC AA
 3A A4 8E DE 01 78 56 A6 93 82 66 A3 D1 82 78 1A
 4B 3F 7C 29 A9 7E FC 82 F5 B8 21 4D 74 AE 8D E6
 B9 C0 12 B8 C5 D5 28 82 43 AC B0 49 8A A1 A5 AD
 D0 79 83 B6 31 F0 7E 7D D7 95 5C 5D D8 84 7C 74
 38 19 F8 0A 12 5E 44 38 AD 02 60 79 A1 E5 8C 05
 31 C2 11 59 06 6C 06 34 8C 92 AD 4F 04 6C 5A F3
 68 DA 29 69 EF F1 82 C9 2D CE F5 0E 82 7A 12 82
 9A 08 3E 58 5E 43 A9 33 0F F3 BE 35 59 41 DB 42
 1E 04 DE 5A E9 C5 1D 91 4D DB A2 65 09 DC 92 8A
 A4 04 50 02 3A 91 B2 26 C8 00 AB 88 29 49 89 9D
 13 9E EA CC 8D D6 86 52 C3 62 AF 44 4C 14 FD 48
 19 E0 BE 8D AF C7 33 14 33 71 E5 4D 98 AA B9 BB
 E0 8B 1C 43 15 76 8D D0 00 E4 83 8D 73 D1 99 04
 31 DD 11 18 48 96 E3 96 7D 97 37 EB 07 75 1A E9
 A0 44 43 52 AC F1 BA E8 53 38 68 2A 7E F8 50 BC
 4C 4D B5 7F 7E F3 2C 8C 48 0E FD AB 38 2B D8 EC
 00 0A 3A B4 80 C9 77 AE 03 4F 65 AB 6A 2D 34 D8
 1B 53 86 11 80 08 3D D5 F4 1D 5E 3D BB 9A F2 CD
 51 15 56 88 62 FD 2E 7E B7 92 EE BB 63 EE 60 A9
 A2 EE 06 AB FE CD 0D 49 8D 8B 62 24 A2 03 2A 1F
 C7 99 86 8B 2C 67 9F 49 F7 4B F8 D9 99 67 08 35
 3F C6 46 3E 9A 4F C0 C2 5F 77 5D D5 97 C7 C0 40
 56 CA 6C B6 BD 7F C3 8E F8 43 C2 AE 0C B0 E6 D9
 E4 12 99 FC 33 7A 66 04 73 8A 5F 33 5C 93 AB 6D
 37 90 B2 61 84 5E 77 ED DC 52 EE 2C C7 4A A0 06
 1F 21 D3 FF 76 08 09 BD 55 FC 70 EB 05 5F 9C 46
 5D 71 E4 F3 67 2E 13 00 3E 60 1F 9B 62 96 7F 6F
 0D 65 34 B5 FC 2B 19 65 E4 37 18 69 12 02 96 A0
 EF E2 EE 0C EB 6D D2 C1 1D BC 30 07 E6 35 7A DD
 F5 B0 DA B1 44 4E 1B 25 E6 B5 90 5E 4A BA C1 70
 85 1A A6 CF 16 3B 4A 85 3D 67 EA 70 C9 27 E2 6B
 27 80 86 16 EA 08 7E 0E FB F6 CB BE C3 40 A1 F1
 F7 53 40 31 9B 6B 31 10 9F 68 86 94 14 E7 EC AD
 15 6D CB 67 7A 0C 75 AC 37 AE AF DC A2 6D 07 09
 E9 22 6F 95 44 11 84 CA 0A 11 C9 41 BA 01 2D BA
 27 D8 31 F8 8F 4B 50 5E F5 80 A2 C1 66 10 BC 82
 CF DF 08 8E 2B 84 E1 E8 87 DA 0B E7 CF DB 68 51
 EC 86 62 8F BB 11 F1 5D 0D 97 63 C8 62 A8 E4 97
 79 B4 76 7F 53 4D 12 9C 3E 7A 44 CB BB DD A6 3D
 F7 A6 12 8F C2 CC 5E CB 89 2B 94 D4 4B 4A 6D AD
 1B EE 62 60 35 55 8A EC EB 85 DA 73 74 1A 42 56
 1A F4 24 58 21 A2 F6 A8 7B 9F 87 CC 3A 19 53 57
 76 75 2F 40 8D A6 66 E0 65 1D 4D C9 6D 3B 40 5E
 E4 3A 99 32 E7 E9 3D 22 B1 AC D4 30 56 0B F2 39
 9F A4 8B 39 DA 9D F5 84 E6 38 90 23 A0 9D 59 66
 1A 2F 22 01 39 AA 8E C4 40 9D 96 2B 0D E2 7B B6
 DF E2 15 FF 01 CB C6 0C DE CA AF 6F FA B0 80 47
 29 CE D0 B1 8A 24 B2 A9 E5 6C D4 0D 54 40 71 A3
 5C 8B 55 4B FA 08 38 A4 65 BE E2 D0 DD 32 4B 1C
 CD E7 16 1A 96 DD C7 91 EC AC 60 CE A9 F3 04 A8
 86 1C C4 F8 61 A5 98 6D 81 A4 EA 9B 67 63 8D 2E
 D5 EE 1B 9A B5 83 52 77 99 00 BD 95 F9 6F 4D 4E
 B1 56 88 1D EC 4E D6 71 FF 4D FB 5C 8D 35 3F 9F
 6B 64 47 51 97 A8 47 35 D1 E9 AD E8 AD 38 50 DE
 E3 3F 5B 5B 6E C0 D0 43 52 46 C1 D2 DB 34 D4 89
 9C 19 D8 CF CA 3E 15 62 48 C8 7E 5B BF 67 47 97
 7A B9 16 96 8B 43 E8 DF 04 C8 72 EF BA 0E 6B 29
 69 3B C6 D4 93 5D 0C FD 49 38 5E 94 26 CF 9D 3B
 2B 0F 9E F0 EF F7 C6 87 A3 45 35 B5 59 1A F9 01
 DE 2C D7 7D D1 E6 19 DC 8F 16 DD 68 95 0E E1 A0
 31 DD D7 88 BD 10 17 FE 25 B3 DB 28 61 24 0D 5F
 F3 84 65 75 95 02 6B 20 5A 94 06 A5 4C 53 62 9B
 31 10 32 48 AA A4 05 5D 81 DE 67 F1 5A CF 38 71
 7D DD 29 38 3C DE 2E 9C C6 9C 53 C0 78 00 FC 1B
 C1 98 36 C9 CD 5C 69 7C A0 88 25 60 10 76 07 46
 6E E3 5A 36 B8 91 46 D2 67 5F 22 13 B0 10 C0 EC
 64 D1 B5 12 D5 05 CA B9 93 93 C8 EE EA 0A 28 DC
 3C 62 53 8C C1 8F 4A 8E F8 7E 9B 4E D9 75 4E 40
 89 B4 E9 5F E7 73 4C 77 3D 90 71 10 02 2E 05 F2
 5F 79 E7 0A 98 00 5E 19 7D AF 6D F5 0A 14 FB 25
 4F 15 02 02 E6 8E 8D 0B 92 1E 5B CC 60 8A 8D D0
 8C 23 74 21 61 1B 12 7F F9 50 46 6A A1 F6 DE EF
 4D B8 29 F9 E2 A0 2C ED 2D 7E 87 64 BA 4C 04 19
 6F 61 4A 7C C3 7C 84 90 C6 8F CD A8 CF 53 24 07
 3C 61 72 E5 5D 65 6D 60 F4 B9 78 1E FA 6A BD 3D
 3C A4 5B 14 53 A4 9C DA BE EB 8B 16 D7 67 34 B8
 33 6F 23 51 D2 97 60 CD 02 C4 1C 13 3E AA A8 A9
 7E 09 47 3F CB 92 3B ED B4 E8 A0 79 D0 4B A0 3D
 0F A0 F8 7C AD E1 6B 92 A9 10 03 2C C0 7F 8E 0A
 3A 32 8B 76 2A 71 21 B0 3C 9E 07 5D 07 7D 16 16
 98 D5 BF 5D 75 DF DD 83 B1 51 BF 42 5F EF 02 5C
 A2 84 8D B9 15 5E C2 3E 89 7F 3C A5 F4 B2 0B 62
 3F E8 26 D6 BF CD A4 EB EC 6D 0C 77 2F AF 96 F1
 58 0E 95 89 3F 3A 70 08 EF 8C 11 15 A6 DB 47 B1
 25 9A 9D 7A A8 65 7C 8B B5 25 07 D2 59 DC 6F 68
 E6 90 FA 22 EA 28 D4 C5 24 77 C9 A7 CC 44 5C E4
 01 C2 ED FF 24 8C D3 09 56 77 84 1A 0E 98 DB 93
 B9 70 72 80 BE 31 C9 D5 AC 72 BC 80 10 6F DC 2E
 78 A8 BB E0 65 2C 57 9C 21 6F 62 DD 23 75 F2 BF
 F8 28 BC 88 F5 1D 68 AF 7F D4 90 BE 0D C1 67 18
 B0 FC 21 63 F5 F5 41 D1 A2 20 25 0E 2E 8C D4 60
 75 82 C4 A0 86 13 C2 FC 86 20 AA C5 6A 42 C0 84
 9B 63 FE B5 B0 6C 29 1E 3F 2B C8 42 DA 47 C9 D4
 84 32 2D 19 D4 9A 89 E7 08 31 60 95 5F 5B 35 03
 56 8C 72 80 7A 7F 9E 25 18 3A BF 93 8E 0C CB BA
 94 F6 E2 AE 47 36 AA D6 7C 56 88 9B 12 AD 76 F9
 A0 8F B4 C5 E8 F9 A3 48 AE 62 B4 81 7F 6B 5C 71
 F4 6D 65 89 5B 81 21 E8 34 60 01 D1 58 B7 7B 6B
 1F 81 00 83 86 AB 5E 60 20 38 98 9F 40 95 42 80
 42 A5 FC 7F 51 F6 E8 FC 0F E1 EE 41 AE 77 44 A2
 22 44 CF BB F8 F4 DB 9B 6B FE A2 FD 23 B0 0D AC
 82 15 D2 BA 29 1F F2 0E 48 B8 C2 E1 B4 31 65 38
 2A 63 5C AC 31 43 D3 3A 9A BF 47 6D 7F 50 FB 1A
 86 FC 93 62 D5 26 DE D4 72 A8 34 DE 4D 97 EC 11
 B1 3E 9C 54 AB 77 71 6D 88 C8 01 42 F0 96 92 7F
 FB EC 21 87 30 27 AD DB E7 89 76 89 57 2B 2F 76
 1C 6C 40 43 E7 98 E3 5E E6 E9 18 F6 61 CC EA 07
 C2 DD DB 53 6E A2 B2 00 32 B9 7D 79 14 E7 F3 AA
 5A A2 9E 52 16 DE 3E BD 5F 0A A7 0F 61 FA D6 76
 DC 62 FB 8E 0B 0F E1 13 39 73 FB 3D 09 83 61 B5
 55 0B 46 41 DD 77 AB A2 65 AA FE E4 F6 D6 C2 B9
 61 50 7C 56 89 13 3F 10 FD 8F 57 C5 C0 18 C7 66
 16 90 F2 5C CE AF E0 52 1A DE 34 C0 F9 5C 72 73
 5B 1F EF 68 9B F7 00 58 FF 06 97 BC CB CB 62 18
 E9 F9 C0 C3 A8 30 B9 00 08 8D 0B 45 72 05 A5 7E
 63 36 28 2F 0C C3 B6 D3 3B 59 2D 26 20 6C 9D E2
 F7 1F B3 44 A9 E9 3D 38 92 87 41 86 2A 3F 5B 4D
 9C D3 E5 0C C1 0A E5 BE 73 5C A1 25 3F 87 BB 47
 9E CD 9B F7 06 BF E3 14 56 0F 1B AF 2E 23 4B 8D
 E1 CC 8E 9E 04 66 3E E5 A2 42 FC 0F 39 28 25 B0
 B3 D4 B1 4E FB BF FB 30 C2 D7 36 CD 12 9D 8E 9B
 E4 23 1D 9D E1 24 BE ED A8 43 CD AB 1C 50 99 BC
 72 4B 60 E0 5D E4 3F 01 2C FC 58 B0 A3 1A 45 DC
 F9 0D 67 B0 D0 8B A4 25 30 6B B4 BC 5C 84 7B BD
 AE A3 6A 6B DD 39 92 4E 57 58 93 3C CD 26 0A AC
 E2 CA 94 82 00 36 BF 26 E9 35 36 36 4A 3B 2B 52
 AF 62 9A A2 9B 68 74 55 D8 51 CF 8E 36 1E EE 4C
 33 C5 AA 9A FA 21 10 F4 7A 16 4E F7 6C 3A 68 2B
 4B D8 7F 60 16 73 E1 1E BF 62 C9 4D 8F 3C 61 AF
 05 4D DB 0F 50 F5 87 04 A0 96 FC 23 5B 8A 34 8A
 AA 03 DB C3 61 96 86 D7 47 E6 F2 14 C4 00 6F 06
 EC 9E B1 BC B1 06 5C 9F F1 72 79 F0 B5 A5 2B 22
 0F B4 9A E3 96 7C 2D 00 E8 EE 60 92 BC BF 2E BE
 43 88 B3 DC B9 5B 2C C5 BD 79 4D B2 75 CA 25 C9
 81 BF 41 2A B6 BD BD DF C8 E2 85 E3 3D B5 90 AB
 80 CC CE B1 AC 6D FC 2B C1 21 28 D6 A5 50 A2 69
 A1 ED C2 00 B7 1A D8 F0 67 BF 63 CE 23 56 31 30
 94 7B C6 91 48 89 96 0B 5F E8 93 CC 54 0C 41 6F
 3D 0A 46 F8 D5 E0 C6 20 A8 C8 FF 57 ED B8 83 07
 7C FB CC DD C2 CF 10 FE 97 D0 45 14 A7 D4 88 16
 C0 1C 34 4B 58 9E C2 8E 83 C0 90 C6 00 BB 2F 66
 B5 D8 8A AD 05 37 06 F8 06 50 7B DD 29 18 27 D4
 70 B5 25 A7 A5 88 4F 55 48 86 EB 72 CE 44 E4 DC
 80 D9 E4 75 7A 9B 2C 51 11 9A 9E 69 E6 74 9F 6D
 BF 79 38 43 EA 53 D9 D8 CA FA D0 35 2C F2 13 1B
 12 50 66 93 2D 9C 15 64 65 A8 03 DF 64 02 35 47
 F4 FF 24 C4 02 9A 3A D7 D8 E0 FF FB 29 6A 15 33
 63 15 0B 78 B7 9C 9F FC 91 7F 62 5A CB CF 4C 1D
 E2 88 CA 7E 9E 71 9F BC EB 27 08 94 43 90 BA F4
 03 6A 97 91 46 87 AC B2 90 BA B9 A8 87 61 8A D9
 38 FD D5 E9 B6 77 F3 AD 77 18 3C CC 81 F8 07 52
 B4 19 E5 4C AD 45 6A 7A 36 59 77 ED 88 41 6E 9B
 3E 4F 3C DA 74 53 70 21 52 96 4C 42 7B CE 45 57
 C9 04 74 F2 D0 D6 C1 14 49 E7 06 7D CA 57 4C DB
 F9 A1 08 61 E0 29 75 A2 10 EE 7B E5 B3 ED AF 8D
 60 2B 42 30 40 6B 7B 37 33 3F AC 42 31 71 99 99
 33 1D B3 38 E7 CC 98 F0 59 55 DC 6B EC 21 E7 05
 55 EA 3D AC 22 8B FF 17 B5 8F 74 9F 73 91 B7 95
 E6 28 CF B0 83 C0 55 67 59 09 25 82 72 91 84 B0
 E3 0D 72 AC 37 CB 03 3E 5F 16 BE 6A 48 7D 51 48
 5A 83 11 DB E0 31 41 93 89 A2 D0 50 1F 4B 5E 46
 E5 AF 72 D5 FD C1 C8 2E 99 F6 61 E9 11 4C B5 C8
 6B 35 B0 83 FB F6 F6 4F 98 B4 6E 3C 56 1D C4 1C
 2C 08 A9 B0 EF 5E C0 B4 75 26 17 0F 7D A6 B1 DE
 9C 1D BC 13 F8 8A F2 7B 3C 12 BC D3 7E 4D 6A 5A
 6A 49 66 DC 0B AE E1 0C AE F8 8D 7B 60 52 91 38
 41 20 05 FF EF 5C 8F FC F6 AD C5 22 07 0E E4 3C
 50 37 97 AB 82 0F EF 2D 1B C9 F1 89 56 43 E1 A1
 DA F5 CB 65 22 B9 CD D0 D8 E2 C9 2C 5C 81 E1 E1
 B5 DA 5A 4F 2B 57 A6 2D 93 B7 78 F1 AB 6D B8 13
 23 37 FA DE 90 22 9F 13 6B 71 76 20 26 28 71 35
 22 B4 CF 8E FD F1 55 43 89 F0 34 4B 79 40 D6 38
 99 DE C3 12 59 4B A9 DF 97 8F 2E E3 D5 9F 2C B7
 41 47 E3 68 B4 05 2D 2C 0F D5 74 C8 E4 8E 1C 45
 F5 3C A4 4A CC 93 80 2E 18 97 0D 7C A6 59 72 F8
 42 75 D0 73 CE 08 26 46 F6 F8 2C D3 67 DB 5D 3F
 DE AD E9 23 62 CF 9B D1 0C 20 72 8C 13 59 AE BE
 00 75 BF E9 F0 7A B1 B3 5C A6 24 B7 9E E8 F3 B1
 68 DF 63 00 6B 70 6C 1E B7 A4 5C 4F 66 E1 5E 9B
 3C 58 70 42 51 E1 F6 0A E6 92 33 C8 AE C6 20 F3
 CB 46 A1 4C 9A EC 44 8A 33 E7 EF AF 44 54 B2 BA
 67 75 8E D4 87 8A C1 AA 47 0F 8D 87 FA 7A D9 BE
 33 5A CE A6 29 FE AE 28 8A C3 44 BA 06 4C 15 F8
 47 CD 08 B5 19 47 A0 AF 52 8C 1F E3 25 99 23 F9
 44 63 59 1B 10 69 F0 51 5B 1A 3C 20 72 81 F0 B4
 ED 58 A5 FB 71 8F B6 13 4A 78 A7 E1 B7 5A 73 D3
 DE 5B 67 42 BB FC CD 89 62 4E 02 3B 03 28 3A C9
 8E 9D 0D 71 B0 55 74 B6 23 C9 A7 C1 60 96 39 37
 5B 14 08 A1 A1 54 E3 1A C1 3F 39 C6 52 3B 1D D7
 60 9F E4 E9 B9 4D 3D ED D4 7E 69 7E B8 6B FD A0
 19 A7 12 2B 26 69 92 7B 5E CC EA B6 36 A9 70 34
 9C F1 EC C3 FB 5D 14 40 E4 3D 17 F9 96 A5 4C 77
 05 AE D7 21 78 51 31 F8 3D C3 C6 FC A3 3B 19 D5
 1D BD 4F 82 45 2E 2B 90 2A 4E 57 A6 97 92 BC B0
 7A 5D F3 64 06 17 18 67 9C AA 37 F2 05 83 FB 0D
 1D D5 D4 48 6E 13 54 CD F5 E8 DB 83 45 5C 10 DB
 33 6D 81 92 5C C1 15 37 8D 45 5A 35 6B D9 57 B3
 EE C9 A3 B3 74 88 57 09 B0 A8 ED 29 A7 34 90 74
 EF A1 5B DF 0E 28 A1 5A 90 D3 6D 96 58 01 42 36
 97 05 F4 36 BA 7C 7B 71 D7 7A 42 14 49 22 3B CC
 A6 57 11 D7 7D B1 9D 04 5E 1D 23 BE EA 14 77 86
 13 0C DA D8 C2 74 90 91 B5 C3 36 5A C1 CC 07 F2
 47 F4 1E B4 5C 39 9E 27 77 FA 8B 3E FA D5 34 E0
 A0 5A 2F EE 66 3D 3A 1C A9 A8 3F 56 2C 98 41 78
 1F DB BA D4 D5 E0 65 99 B0 D9 86 EB 9A 61 43 0C
 FC 11 42 E5 41 3F B7 86 C5 61 46 7E 4C 14 0A 34
 72 83 BB 58 70 25 61 56 FE 16 EE 5C DB 07 85 30
 8E 6E C5 28 80 05 EC 6E 1B FA D1 E4 1A 3F DB 26
 02 1E 10 32 12 B8 77 CC 73 F6 7B A5 45 41 1F 45
 E8 08 0C 35 F7 CE 48 BA 18 4B 12 2A 25 8F 31 2B
 EB 5D 8C 9B A3 D3 B4 AC 1D 4A 44 B4 73 69 6C DA
 13 21 1F 3B 66 8B CC 6F A0 C6 D3 25 CB 1A 05 84
 1C 35 2A 86 F8 38 B6 33 04 44 9F B9 BF 62 00 21
 8F EE 74 27 26 CF C3 C4 91 58 0E 59 0D 60 86 B4
 A7 31 3C E7 81 DA DC 3F 78 26 4B 09 8B 50 55 64
 9E D7 AD 88 E2 98 16 A8 3E E2 A1 2D 47 EE 2C 1D
 95 4A 01 22 2E 01 75 2B 9F FE 29 02 53 8D 58 D7
 59 61 88 D6 0A F7 C2 C5 A6 4E 7B 91 4C 85 96 B5
 C3 2D 2D FF 8F E7 1D FF 3E 1F 8E 9A EC 0E 57 E4
 9E 62 FA B0 3B AB E9 37 77 66 1D 9F 53 35 7B 7F
 AB 4A 5C 41 94 FA 22 D9 B3 D2 DE 85 BC 68 7A 7D
 D5 E1 15 6B 8F 43 5E B1 EE 3D B1 4C B6 81 AD CE
 B8 4A 4B 0B FB 7F 92 28 A8 13 CE 0F 3C 55 8F BC
 36 6F CD DB E5 B5 57 70 CC F4 22 00 E3 8A 7D 68
 DA D1 BF 1E CE 21 11 C3 1E 0F 9B 14 47 75 F7 F8
 72 F7 65 C1 EC 3C BC 43 8D B8 54 71 83 DB 4D 5F
 68 73 CE 17 B3 39 3C C3 34 F6 03 70 52 47 AA 48
 5D 48 EA 5F 74 0B 8F AC 90 78 1A 85 7A 05 0F A4
 5B 84 3F F0 AC 33 78 5C E7 82 71 38 51 D8 2C B3
 70 DD 91 AB E7 DC 64 F4 89 23 B1 A1 96 6B 33 5C
 B7 EC F8 EA 83 34 DA 80 94 B3 3C 4F 60 43 60 10
 CB 6E 8C B4 B3 F5 32 AB 56 D7 8F 9D 67 00 93 85
 A4 A6 8C 97 C2 3F 4D 79 61 27 50 B1 E9 9E 28 24
 6C 55 1B CD 04 69 E5 10 A3 E5 69 39 F6 F5 37 B8
 1B A6 3F 08 BF 57 73 6A 8D D5 8F DC 73 8B 62 E0
 73 F3 DD 47 1E 0D B6 D3 83 3B F6 FC 89 91 18 A0
 56 55 4B 68 59 E2 DE 3F 78 AB CF E7 92 C2 6D 74
 85 FE E9 64 F7 4C 54 D0 08 F4 2A 29 DD AA C8 45
 B3 A7 65 80 E2 A6 81 C4 D4 D8 2C 2A A5 E9 D9 F7
 B7 57 55 AB 8D 6C A3 15 06 FD 4B 2D 4A B1 BA EE
 2A D6 65 E7 92 2F 25 20 1A 5D 9E 53 D6 2C B4 C3
 EF 31 16 B6 AC B1 C2 6D 7D B1 B8 A1 B2 AB 7B 5A
 1C 45 E4 57 90 36 41 83 38 7A 7E 47 A8 6D 98 92
 B1 9A 02 02 5C C0 CA 95 A3 3A AE 35 8E A5 9C 08
 15 FF DE A5 CA A7 45 0A 90 AB 8A 51 DF 15 88 E2
 DD 3C C1 53 EE B1 1D D6 A9 6B B1 37 97 CD D3 D1
 A7 63 6B A0 72 D7 58 94 EC FD B8 C9 49 06 72 C7
 9A B4 62 AD 29 AC 30 34 BC D7 6F 52 06 51 FC 9C
 F1 08 45 DC 73 AA 0D 99 84 42 5B E7 3E DF 3D EC
 97 CE CB FE 91 EB F9 65 A5 C4 43 70 92 C8 22 34
 C7 50 A5 1C B0 8C 83 B8 39 D8 30 63 0F 97 44 CE
 9C 0F 9E 35 3C F3 25 C6 B2 EE 9A 26 82 10 F7 13
 55 55 F5 6A 05 B2 23 87 DC 6C 4E 8C E0 C0 0B C3
 1E 56 EF 98 C5 4B 10 D9 09 C4 BA A1 81 C0 BF 03
 BE 2A A8 3C 85 CA C1 A3 16 80 A9 B4 C1 FC C3 2B
 1C 59 F0 D0 39 C8 3C 03 55 9A 6F DE B2 AC E9 72
 DF B4 62 38 20 96 4C 3A 17 51 EF 7B 81 51 5C 0D
 55 57 2E 1F F5 C9 46 8F 94 60 AC 38 99 01 90 F9
 A6 7A 46 2D 2F 9D C9 64 EB 74 DD 67 FB 18 A1 FA
 70 CD 24 16 02 F4 56 77 B2 42 6D A0 6A DC 66 BB
 3F EB 51 BE D6 65 4E 7A F6 95 2B 71 D9 E0 C1 E4
 2A 68 89 E5 87 2F A0 AB 35 DD D8 65 B1 CC 34 5B
 60 6F A4 B5 03 0A 0B FA 2D C7 A5 BE F3 16 EF 59
 4F B7 15 9B 52 B7 6B A6 A9 1F CF 28 FB 56 76 AF
 41 12 D2 6D A2 93 30 23 CE 9A AA EA 4C 28 CB 3E
 84 08 59 BD 52 B0 39 81 28 09 D9 CD 9D 01 AE 11
 E9 18 16 2F B5 22 E9 03 3A 00 54 24 AA 71 36 81
 49 D4 7E 64 B4 CF 59 4A F0 D7 31 4E 3E 00 06 92
 B7 50 DB 41 FF C3 A1 41 6C 00 CB C2 77 8A A6 7B
 FC 31 60 E1 21 98 6D 09 9F AD AD 46 80 22 05 B7
 38 81 A0 EE 89 53 4F F2 C2 F0 F0 A4 36 0A 42 BD
 D5 E4 DD 71 87 CF E8 3D 87 F3 4B 4C E2 CF DC 12
 81 2B ED CA 9D F9 38 6F 7F FB 20 26 FC C2 FF F0
 4F 6D F4 12 E6 94 18 46 4B 96 E5 54 2F AC F2 35
 5C 0A 29 14 C2 78 96 A1 FD 52 84 57 23 11 F8 49
 F3 A9 67 55 D2 B2 33 BC 78 CC 84 2B 6B 5E 55 29
 0E 75 2E AF A0 F3 A4 03 84 0D 64 8E 7C 7B C1 67
 6C 80 10 FF D1 DC 2C 87 37 A7 73 C6 E0 20 7F 26
 A7 F6 62 0D 94 F8 99 45 D3 C1 1D F9 E1 90 FD 50
 07 A6 12 54 6B BE F5 37 BF D7 A1 C9 3A 70 C1 34
 75 1C 67 CD B0 6A 89 33 F1 7A 2B E0 BE 16 28 28
 FA AC F2 42 C1 69 AB 10 A2 9C 79 91 A9 4E DB 0F
 5F F8 7A 3B C5 4E 8A 8E 61 51 84 14 97 CE 28 4F
 79 30 58 90 1A E7 6C 92 BD 54 64 88 62 29 26 A6
 00 81 27 C7 5B 89 DC 69 59 12 DD 48 95 F8 64 AA
 E1 06 74 44 70 FE 6E D2 B1 A0 9C 29 28 33 23 70
 55 F3 7F F4 23 63 39 EA 34 B8 FF E4 E2 FF 0D FC
 08 0C B0 CD 3B D9 D1 F4 23 EC 3F 6F 04 DB 4C 1C
 18 53 55 34 D3 B1 97 B6 34 6C EB 9A CF FA 98 F3
 FB 6F 33 EF 7B 15 A9 39 D4 2A 95 4E 5B CB 06 3F
 1F CE 22 14 0F B6 0E A2 07 8A 27 05 D9 E1 C4 95
 7D 62 D2 77 AE 78 E7 9F D9 7F 57 DC B8 62 04 43
 6A 8F E0 21 1E D6 58 F6 49 AC EB 11 38 85 A8 AD
 C6 1B 3F F1 A6 53 0A 9D 37 0D 69 7A 09 98 A1 31
 77 7D A2 59 75 8C C5 1D 8D 96 3D 4B 8A 65 BB 12
 55 93 AE 17 B0 7D 86 B3 EF 87 A9 52 ED 4C E2 CC
 12 E0 C1 F8 7F 76 8B 1F 82 F0 AF 25 2B D1 57 AF
 AF 20 3C 04 61 C8 70 95 D4 CA 25 5C D4 E4 AA 6C
 54 B6 C9 80 0C F9 4D 08 8B A0 06 94 27 04 41 97
 A3 7A D8 BF 3A DC 54 7B 07 A9 C3 16 38 5B 03 74
 14 FD 7D 93 D0 93 77 11 AD 51 22 0B 14 61 E1 42
 00 1E 87 07 12 D1 42 DB 7F 15 90 12 84 01 93 72
 62 6C 09 6C D3 96 C7 1B BF 35 83 A1 E5 55 7C 69
 B9 79 DD 37 DB FF CB 97 96 28 E9 6B 49 C0 5C B6
 BC 93 C0 CE 36 D3 70 21 4F FA C3 94 DE D1 49 6F
 22 06 16 65 4E 8A 00 DE CC 9C 5A 04 57 35 EC 79
 B4 64 E5 82 E6 96 A1 6F 12 25 60 E6 C7 D4 4B 2E
 E3 31 24 97 B8 63 67 18 73 E5 67 C6 BD EE 81 57
 C5 04 7E 75 9B 14 AD 10 AF 31 30 6E AA 2D F6 03
 4B 38 6E 31 79 45 02 E3 32 BA 57 0E DF FC 20 08
* End 810941613 2481390472