* LTspice Encrypted File
* 
* This encrypted file has been supplied by a 3rd
* party vendor that does not wish to publicize
* the technology used to implement this library.
* 
* Permission is granted to use this file for
* simulations but not to reverse engineer its
* contents.
* 
* Begin:
 0B 71 AC E7 E8 27 EB 61 01 98 89 3B 25 E3 20 01
 F4 3D A0 72 EC BD 8F EF 8A 1B 27 C8 38 4F F3 07
 65 3C F4 F3 13 AD 91 6E 2F 4F F1 95 5D F8 DF 97
 30 C5 BC F1 ED 18 6C 2A 66 B2 28 8B 62 09 30 65
 9F 06 5F 2B B3 43 59 09 62 34 10 1F 13 40 57 3B
 D3 18 3A 24 34 91 AB 4F B9 93 5B AA EF B9 95 53
 57 14 4F D4 F5 6E BF 8A 82 47 5C 91 B9 E2 95 B2
 C1 C6 13 EB A6 79 7F 8A 2C 33 B4 B7 1E 15 4E 62
 38 8B 9E C8 99 A9 1A D1 78 3B C3 F4 0C 3F C7 EB
 77 65 A6 5B A8 21 DB E9 06 09 E0 7B 02 9B D3 69
 E8 DB 31 52 3B 8B 17 82 B7 63 1C D8 69 60 6E 1C
 E5 65 9C 3E E1 82 6E 75 70 07 C0 07 84 D5 16 AD
 09 CB 05 6E 5E 63 03 55 0A 54 99 89 FC E7 DB 64
 05 F8 CA A8 B0 80 88 D1 8B CF 2E 3C B0 45 7F 35
 87 E1 22 05 C3 98 1F 69 36 F0 AD 74 0B 34 38 5B
 2F 55 5A A1 51 CE 8E 09 16 18 DE 17 3E F4 C8 B0
 6E 3A 64 EC D8 26 BE C3 0F C6 99 6E 1B 5C 6B 7F
 15 BE 9C 6D B2 92 CA C5 EE 2C 2E 29 7C 75 59 33
 FA 7C 9F 4B CD CE 99 89 40 5B 0E 7A 9E 96 06 B0
 B2 AB 0D 7D 1C 2E C8 86 83 0C C5 28 3A EF 73 C7
 2D 5C 31 D7 B8 D3 62 56 13 20 68 C7 93 83 E1 B7
 93 CD 4F 70 D8 52 67 6D 50 64 61 4E F5 2D 03 86
 C8 98 52 FF 2B 2A 17 30 01 30 14 F6 6E 17 32 4D
 CC 7A D8 0E 43 1C E2 F7 E8 DB 4B 5E 24 D8 8C 06
 C4 FC FC AE A4 52 18 A0 57 1A 05 12 1E AA 88 8B
 50 68 D8 07 19 D4 81 91 97 C3 03 11 EC 3D 26 18
 FA 9C 24 18 6F 18 9C 8D F9 35 7A 94 00 94 12 77
 3F EC A1 2D B7 46 24 BC C3 1B 8A 00 C2 EE E6 2D
 02 DF 30 32 F6 E9 55 B4 03 BA 24 6B 89 6B 1B 06
 1C B8 EA 7E 4A 1D 1F FC AC 17 75 6E 5E D3 A3 89
 A8 E1 A0 02 51 CC 05 F7 E6 38 C8 85 A6 C1 62 FC
 0C 24 D7 CA 79 30 C7 EE 9B 23 7E 71 0F D4 E4 7B
 36 68 16 77 88 74 AD 47 03 49 12 78 72 93 13 52
 D9 36 BF B1 F0 D3 D0 ED 31 CA A4 26 C7 D0 4D D6
 DD C8 B0 A7 F7 FC B9 96 07 FF 6B 9B 5E B0 B7 56
 1E 9B 1F 37 7C EF 34 C3 8B FB E3 C0 5F 52 FA 0E
 B0 3C 1F DB 11 9B E8 12 12 D5 FA FE 99 2D 2A B4
 15 7C C0 D6 C9 58 53 31 14 51 E8 44 A0 5E 1E 06
 61 AA 24 22 3E 84 D3 B6 C3 86 00 EF 0E DF F0 95
 3C FE 62 7F 87 77 74 9B A6 90 B9 07 2E 73 17 26
 20 29 6A 55 88 A5 E8 41 49 3B C0 E3 36 6F 77 63
 40 90 36 FF 19 2D 4F 63 21 C9 CE B3 90 3E DA F1
 F9 B8 BD B4 81 E0 3C C1 D4 EA 98 DE 53 1F 58 1F
 5B 3B 14 18 39 13 61 FD CB D8 7B CF 8C 42 36 48
 9F 20 44 A2 62 18 25 36 B6 B1 49 ED A1 1A 27 CE
 08 24 33 02 E5 81 64 93 E4 56 4B 56 3F EF 1C 73
 FD 5A 94 73 D7 3A 5A 80 91 DC 28 15 AD 87 E7 70
 2F 4A AD F8 A0 D3 8A 0D 89 9C 86 00 BC 5C FD A9
 E0 FB E9 87 C4 96 8B A7 63 9A A1 65 BA 18 14 C0
 57 3C 56 42 66 CB 6F A1 98 E3 B0 70 E2 36 B9 79
 D2 C1 84 21 C5 B5 72 CE 46 C3 15 2E 9B EB 42 7D
 7B FA D8 07 41 E1 81 B0 41 D6 EE EC 17 39 BB 29
 FB 8E A9 BA E0 22 FE AF 8B C7 66 DE 4B A8 BC 7F
 F8 4B 48 B6 80 18 F9 6B DE D1 34 BF 8B 19 36 5C
 CB C6 19 A9 23 BC 95 3C 83 9C 53 1F 3C 00 1C 2A
 5A 8D 4B 19 64 6A D6 AF E2 54 87 59 96 FB 94 05
 D2 4E 79 9D 51 CF AC AA 9C 26 BB 98 32 33 80 80
 61 76 BB 16 81 F1 EE 43 88 BA 95 B3 82 11 5D 8C
 4C 31 F3 6D F2 56 80 DC 24 E1 66 2A BA 52 90 35
 36 5C 79 7D 0B 36 BA 3A E8 C5 7D 0C 0B B7 D0 A6
 22 72 21 58 AE 6D 5D 98 4C 49 9A 0C 4C B6 3D 1E
 F9 F6 E5 4E 66 0A 6E 1E 8C D5 10 3D 94 78 50 EA
 EC D0 FC 0F 3A 99 28 E6 99 4C 62 D3 DA 69 92 D3
 72 43 9A 4A 21 DC 34 F9 CB BD 20 6C E9 D4 C0 7A
 58 80 59 26 87 82 E9 49 7D F4 B6 BA 7B E8 B3 D6
 8B 79 18 55 96 C5 F6 6A 18 05 3A 7D BE BF 6C 58
 A6 38 78 C0 3F 6A 74 B2 DA A6 75 1C 44 3E 88 73
 EB E6 90 04 47 49 9A 0A F5 01 7E F9 2E D4 1A 6D
 FD 36 7F 9A 7E 34 4D F9 D8 22 9C 92 6F D8 13 2E
 BD 15 9D 84 E3 F1 5F D3 85 83 EF 89 75 4F 5D 40
 66 F6 D1 7E CA B9 2A 47 55 37 0E 6F 94 F6 3F 33
 F0 3E 0D 3C 63 86 1E 31 93 07 88 48 19 32 86 F1
 74 DB F1 17 C4 39 58 0D 36 35 CA A0 E6 CA B8 7F
 24 41 35 2E 64 43 D6 AE 98 31 BA 9A EE EC 24 DF
 12 B7 A9 82 93 79 29 CB B5 4C 96 4B 19 03 08 E4
 87 75 31 52 1E C2 34 28 86 7B 80 17 6E 76 24 FF
 70 F9 BA 6F 27 55 3F 1C 8B BD F6 FC 0D 10 76 C7
 63 12 4F 8A 5E AF 00 34 AE 00 B6 41 54 7E B5 B7
 B1 45 C4 BC 47 BF A0 63 08 F8 C4 DF 88 9A 8D 65
 07 C0 CB 9B 36 E8 43 75 A7 05 ED F5 DB CC B5 D3
 5D 08 7C 40 1D 47 1D EC 8F 9B FD 12 6C A2 22 4C
 8A 52 47 C4 83 51 A4 8F 2D A1 76 7D 83 AB 96 C1
 90 35 C2 97 96 8D E8 A1 DC B2 ED 43 AF 7B 28 1A
 1E B1 EC B8 79 33 7E AA F9 A2 AB 04 FC F0 FC 2F
 3E B1 2D 66 00 61 D7 C7 E5 05 30 AA E4 E8 4D D8
 DF 76 AD B5 8C 5D 78 A4 A7 48 25 89 A3 28 8E 9E
 56 92 38 E1 84 EE A4 CF 8A A2 45 D1 F5 27 45 01
 FC 1D 83 4A D9 C2 06 B2 5B 46 60 B0 2D 71 04 84
 7C 66 43 52 E8 9C C6 F2 6D 27 4F B3 C7 6A 0D 4A
 D6 35 F3 98 42 B2 A9 70 99 81 E9 9E E3 5A F2 7B
 98 B4 80 C0 E8 AB 68 6B 8B 88 C5 F2 D7 B6 59 0A
 F0 73 B9 ED E4 6E 46 39 5F 9E 70 B0 9A 35 6D 11
 A2 C2 5B 3E 9A FF C4 2C CF 4B AF AF A4 DC E6 08
 08 A7 6F F8 EB 7E BF 91 F0 AC DB 64 1D 5E 8A FA
 BF DB 13 DB E9 5C 30 30 38 50 C1 F8 2B CE 76 8F
 33 D1 C4 A2 CB 56 35 49 2F 90 C7 E8 DA CE 53 CC
 47 16 0E 03 83 A9 0E 99 30 A5 1F FB 6A 7D 28 6F
 E3 96 E2 0B F9 7A FE CC 60 14 AB AB 5D 61 EC AE
 1E 1B 2F 6C 01 DF E8 CD 1B BF DD 7D 1C BD 62 9D
 C5 60 83 FF 46 C0 C4 FA 52 EB 47 E9 45 AE A3 13
 E9 95 06 18 CC 89 F8 C9 2F DA 6A 57 A7 BC 92 58
 A4 86 4B 9D D4 F8 03 1F A5 15 D0 6A D3 1E 4D B0
 9A 6E 4A B1 DA 49 F2 89 17 F3 17 82 A1 45 A2 F6
 B6 B6 BD E3 00 03 2F 45 E0 A1 2C 30 75 A4 D2 95
 62 BA 50 BC 9F C6 1C 03 27 50 4D CC 44 70 F4 6E
 BF 66 01 B1 98 F9 B9 50 03 E1 44 9C 7D 53 82 AB
 95 29 B4 4D EA FF 57 00 92 CF 6C 37 23 06 5A FA
 88 98 94 F9 E8 E9 9E 40 2B A8 1F 0B F0 EB 40 16
 2E 98 CB 26 FE 47 0C 5F E1 15 BA DE 13 2A 77 84
 6E 09 E2 94 F7 8C 22 88 9A 0E 80 D2 8A 60 D0 97
 75 20 35 AB D5 62 B6 70 95 E3 0E 2F 03 6F 1F 89
 F1 D8 3D 10 9F 5A 09 D3 FD EE FC 69 BF EB 0D B8
 99 27 C7 3C 05 87 79 8A C4 7F 9E 31 A7 1C 4E EB
 A4 12 26 EF 68 9C B0 36 63 2F 6E D0 E1 53 72 28
 9D F7 23 6C FD 3A 2C D8 97 BC 2F F1 C3 53 93 36
 37 3D C5 90 D0 F5 40 4F BC 78 8A 17 F9 F9 31 B7
 AF A1 84 8F 37 89 71 D1 56 B9 51 7F 75 26 32 39
 6A D2 00 2C 3F 0E 39 B7 51 0F 23 A6 B7 B4 A7 20
 D5 A3 52 3E 77 14 92 B0 A6 02 D9 4E 9E 66 1C 11
 F3 7C 89 6E B9 A2 D8 1D 2F 15 D9 AC 75 EA 00 4B
 25 24 EB F0 FC 80 6D 3C 8A 22 ED FF E6 19 5C 5A
 30 6D 4F BC 05 99 9E 38 F0 9D 8D B3 AC C2 5F 14
 DF C4 49 C7 4D 32 59 AD 31 2F B2 E7 D8 95 32 03
 0F 79 5F DE 5F 8C 52 D0 F1 E9 41 55 B5 D2 94 47
 11 7C 94 70 68 DF 89 A7 34 70 85 45 C9 97 29 11
 98 E1 EB A0 1D 70 D7 AB A5 4C 7D FF CB 98 72 86
 DC 12 35 E0 8F A5 FA EC 09 27 1C B1 06 87 53 E3
 92 BA 3D 3F 17 E7 26 6D C4 53 A5 64 C2 6F 6C E4
 B9 05 C1 51 F5 55 28 60 0A 45 AA 35 B9 74 9D 2D
 94 80 4A 2A 1C E3 A9 8C F7 9F 46 19 F2 7C 1B 35
 72 13 6A CF 67 27 CF F2 50 F9 29 0F 83 C0 89 D0
 37 3C A5 4C CF 68 93 C3 37 0B CC 6C 9A 4D C7 E4
 8C C8 43 32 35 B3 C2 71 A9 5E 11 28 B7 A6 CF 31
 5F 76 95 7E D9 7D 73 FA 12 8C D4 EF 19 F6 C8 1A
 4B ED 5F BE F8 80 79 32 D8 3C 49 16 5A 76 1C 77
 A8 02 A1 86 46 A6 80 A4 87 1C C0 CC C0 8B 13 D0
 29 0F 25 CC 1D 0E AF 24 32 EA FF D6 75 B0 CC 99
 B4 73 DA F7 4C 30 62 A2 88 E9 01 99 2D 2C 16 FD
 32 E9 0C 82 6F C8 65 F6 48 A0 9C 35 23 34 20 8F
 BC 5B 67 CF E9 3F 51 B2 10 73 8C 1B C7 6C 96 BB
 61 8D 44 4B F8 3D 28 E0 A5 B9 6F 7E 03 B6 3D FB
 33 A7 F9 1C 5B 30 A6 BE A6 08 33 94 73 85 91 A8
 B9 54 02 F6 56 53 84 A1 18 6B A9 4F 58 9E E8 DB
 17 D2 9A AA 85 A0 05 B3 66 6A AC F2 A6 12 52 AE
 B1 3D 8E 19 C7 6D 1A F0 7F 1E 25 35 1D 44 A6 CA
 B0 FD 61 A6 1C 08 6B E9 FC 0C E5 51 AA 93 42 9D
 8F 61 9A DD 77 7C 10 F0 53 51 42 F3 D5 69 13 BF
 6D EF A0 BF BD F6 D4 87 73 96 56 7C 43 E0 E1 1F
 82 66 91 E3 9C 52 AB 96 9F 03 C5 7C 98 25 59 0B
 06 48 2B 9A DA EC B7 39 C2 69 6C 77 8A 80 81 65
 4C E5 5D AF 0A 82 5A 27 FC 47 6C 1F 36 BE 47 65
 DC FA 40 AA 28 48 C5 A2 C8 12 E5 4A E3 44 EA A3
 9B A7 A2 D2 CF C7 5A 17 80 83 5E F5 21 D7 5D 36
 06 31 35 A7 85 00 07 57 40 71 B8 E0 FB EF 24 8E
 21 BD 4B 39 6A 7A D9 51 7C 81 F4 59 1A DF 9A A4
 D1 CF C1 2D 3A ED 03 55 F9 EB 2D 8F 9E A8 8A FA
 DF 67 99 84 0B 75 AF F9 35 18 FB A1 BB 64 04 79
 AE AF 9B 8E E1 DC CB 5A 26 3A 2B 2B BB F8 30 B9
 03 56 AE BE 46 91 4B 11 D6 D5 B8 93 7D 01 33 95
 E1 06 FB 4F 08 8B 70 4C BA 5A 20 37 E1 3E 69 62
 35 A5 54 AD FE ED 45 80 E5 D5 B6 9E C9 87 05 36
 F6 D4 29 F9 D0 AA 89 B6 DB A9 0D 80 D5 CB 95 6E
 5A E4 4E DD 63 D6 75 E6 35 DD 35 38 D0 1F 0D 53
 E3 BE 22 39 79 31 8B 5D AA 8C A1 F1 37 22 29 52
 F1 24 26 84 73 BE 32 EE 02 4B 1E CA 7B 33 ED F5
 85 4B 07 30 5C C5 DA DC C1 38 86 D0 3A DE B7 AA
 9C 22 20 41 70 65 39 70 1F 17 2E 59 96 2A 8D F8
 1A 59 C5 CA 62 0D 06 37 D4 31 00 F0 DB 90 56 78
 CE C4 AE 22 8B 63 B9 78 32 0C 53 5B 56 BF 83 2D
 8B 8E 08 97 AC A2 0C 58 B2 44 F1 4F 2B 8C 47 E5
 AB 35 A2 48 13 9D 8D C7 1C D4 CF 05 74 10 1F F9
 FB 6A AD 83 FE 0A AC E9 29 98 FC A2 6B 77 42 8E
 50 73 E0 25 10 D4 B2 96 38 31 40 92 05 7E F2 D1
 C9 DB 4D 5A 31 8C CD 2D 9B F0 CA 74 09 EB 1E A1
 6A 23 69 CE 0F 36 A3 37 3B 36 DD 3A E4 D7 ED CF
 CF 07 5E 0C 04 3B 8E FD C4 F3 8A A0 51 2A BE 55
 E2 54 D4 92 1D 68 D7 F9 59 C0 A2 E4 7B 43 DE FB
 73 A5 46 36 B0 18 3E E4 39 7C 33 71 C4 4D 38 07
 1B 5D A2 5C 84 7D 81 0F 18 FD 64 4D 0E F6 93 D8
 3A 1A 90 C6 E5 EB DC D1 21 F8 2C 97 FE E1 B4 47
 DA A0 39 2C AC 70 72 AC 35 06 11 45 26 F2 3F 72
 69 06 E7 6D 3E A3 20 F2 2C F4 74 90 A4 5F 81 A5
 F4 E2 75 8D A7 7A AE 22 E8 F9 DC AB 9C E2 FE B6
 09 B6 34 FE 9B 3B 37 83 DC 19 4A 36 A6 40 EF 4E
 20 E9 5C 89 40 98 B0 99 28 49 45 54 3E 97 9C 46
 01 40 92 C8 E9 46 7D 23 C7 2D 8F 03 6C 79 15 35
 E0 A6 3B 0A D6 53 37 5F A6 6F FD FA 40 6C C3 30
 82 65 70 05 62 7D C3 19 D1 5D 1A 9E 53 A4 08 0D
 C2 CD B4 24 45 EA F3 2A D5 B3 57 82 26 6B 01 91
 25 82 DE 12 CB FF A8 B7 B5 C4 AC 2E 17 ED 7E 61
 68 A0 85 2E 4F 97 52 00 F0 FE 1B 82 19 3F 78 93
 8B 1D 9B FC B3 C7 D4 D3 7E A7 18 6D B0 69 A7 AB
 25 FA 77 DB F3 E8 BA 07 63 82 F1 3B 46 0A FD B2
 E6 F3 FD 9D 43 50 CB 48 7E 8F 1D 5E 92 0A 59 F7
 D8 64 7C EC 6A 48 E3 35 2E 0E 69 0B AA 69 B6 43
 EB 61 91 46 18 3C D2 15 9A 56 E9 DB B4 D0 29 25
 1F 6B DC EE C0 53 CF 5D 36 26 89 CA 45 94 03 E3
 E7 3B F2 C4 C9 0A 49 F1 8E 0E 2E B4 15 F8 A7 5C
 22 B9 D4 A9 56 CF 9E 06 50 41 B9 83 F5 CB 0F 40
 9C D6 01 5B B3 40 C5 D8 7D A2 3A 73 32 C6 E0 7D
 79 33 A3 FD 05 78 A5 28 46 4E DF 18 1B DA 48 1D
 B1 A7 2F 75 E2 E6 E3 D9 3E 5F 57 A8 E9 53 50 E4
 19 45 D6 A2 04 D7 38 E0 61 CB D9 22 91 EF 9B B3
 82 DC 91 6D 57 EC EA E5 80 5A B1 01 9A AC F0 11
 F9 35 AB 82 2E 72 4E 06 19 5E 2E 4D 30 F4 AD C7
 10 B4 77 6A 4A E1 8E 75 37 08 5B B3 08 28 97 D2
 5D E3 0C DC 09 DA 93 15 FA BD F7 BE A8 36 1D 47
 B1 57 0B 13 9B 28 84 07 C1 32 ED 1D 20 2B A7 BC
 C9 C5 6C 70 1F 9F E4 CD D2 3F 97 CC 2E 46 0D 8D
 C4 9C B8 F3 55 72 23 43 78 C7 90 EB F8 92 D1 6A
 89 E7 DB 82 77 1D FB E4 92 F5 56 73 D8 9D 2A 4F
 2A EF 32 60 AE E3 81 E6 92 7D 8A 3A 40 D6 57 73
 27 1D E7 59 2D B1 CB 49 7A 90 11 07 BD 91 7A 64
 A5 F9 AE A9 23 8E 04 C5 F9 0E F6 58 36 6F 35 79
 B0 2D 25 8D 16 83 BC BD EE 68 5D 6F 5A 40 72 F5
 89 8B 96 8F B8 DF 5F 88 4E 8B 34 2A 16 57 41 28
 87 BD CD C3 E5 8E 9F 18 F1 35 B0 E9 27 7B 0A FB
 B4 B6 64 C2 15 D7 DC 1B 8A 5B F6 E7 88 E5 91 D2
 A6 E9 04 1B B6 EB F1 56 FB 8A 5A D3 6A BA 86 9D
 93 71 42 78 5B 8D FE 49 BC 4F 33 5A 51 62 6B 32
 41 66 29 6A 4D A7 76 A7 52 16 8F 19 FF 06 DD F6
 99 BC C9 0C AE 3A 2B FE 59 BE 2E 65 2D 21 00 35
 9A A2 87 02 A3 74 9A 64 76 32 CE 1B 92 22 37 82
 8F 53 70 71 52 68 BB 47 85 B5 B8 E2 9F 13 FB 51
 56 A8 C2 88 AF 54 8C 49 27 6B FB 7C 5C E8 36 0D
 18 5E 37 DB 5E FA A6 A4 8D AE DC 41 F7 4C 4E 92
 07 39 14 E6 C2 DA 50 73 6A 2D 23 AA E8 4E 90 C4
 6D B6 F7 DA 71 A2 15 15 40 B7 3C EB 14 F9 87 01
 B9 1A 7C 3F 28 5C E2 51 2F 9A B7 CA 9D 6F 18 F8
 24 EE A7 47 44 29 BB 5D 97 F4 D1 1D AA DE 06 68
 B4 8A 79 81 CC 3F 30 48 87 11 05 5A 60 1C F1 AE
 E1 15 74 82 D7 0E D9 70 A9 13 96 8D C4 B2 03 CE
 B7 83 66 03 35 16 C0 A1 61 41 11 5A 1F FB D3 82
 DB 9F 65 DA F5 89 A8 83 43 6F 54 0C C8 D1 3D CD
 75 57 00 DE 32 41 90 B5 C0 28 DC 01 75 94 72 25
 3A C8 FC 3A 76 AA 1B A2 88 C3 76 DC 01 30 56 30
 95 C4 4A 26 F6 19 77 1D E2 DA 53 1D AA DC 17 A1
 48 D2 DD 40 FF C3 19 7E F2 A9 93 6A 57 CA 99 51
 2C 03 BB EB 35 AF 9D 6D 8B A8 95 EA D7 F3 C6 E9
 A4 50 56 7C 43 E8 47 F3 F1 B5 D2 4E 09 DB DC 18
 18 F8 FE A8 2B 9E 38 9D 36 FD 50 A5 F9 97 4C 08
 B2 2F 41 81 04 BA D5 E6 BD 64 AA 6C 7C FC DE 15
 03 D7 CF 69 7D EE 1C 14 7B F6 1D ED 51 59 7E ED
 C9 6B 55 9D FF 38 FC C5 EF 5C D8 5E 10 7D FE B1
 EE AE 96 1C 07 0E 80 06 66 56 DF 01 29 91 B0 1D
 03 A9 57 8B 2F B8 55 F7 F8 5F A1 BF DF 92 BD 72
 84 F2 64 62 4C 06 D8 3C 38 C7 53 9E C2 EA 28 66
 00 42 CE B8 92 7D 29 B9 8F 6B A6 BE D2 2D CF 25
 F9 BD B0 83 0C B1 9E 99 3C EF 7A 4E 45 87 28 DE
 B4 94 03 62 03 6B C1 5B 27 FF 9B 62 81 47 C8 06
 30 7B 90 B2 16 01 5F 86 97 EB E2 12 05 89 82 A0
 99 13 0E 7A E0 A1 50 D8 87 F3 22 BD 49 AC FF 19
 1E D5 34 95 0C 0F C2 DC 4C C6 F9 50 3B 42 B4 94
 4A 2D 80 96 49 F6 4C 64 54 9E FF 13 05 5E A2 4F
 7F B1 5E CB 96 F3 81 7A 47 98 1C 6C 84 5C FE DB
 5C CB F4 C6 63 62 5A 63 EE 50 B0 4C 70 B1 07 6B
 C9 5F F7 86 23 64 E1 E9 FC D7 CE 8C C8 06 4E F5
 83 9D DF 86 5B 60 C2 A1 A9 12 5E 78 4D A6 C2 D7
 58 17 D6 86 5C A1 FA 71 B3 1D 97 65 9B 5E 34 C8
 10 F6 AE 7A 52 4F B9 14 DA 32 5D 33 73 72 F7 90
 39 7A DB F2 54 7C 56 50 08 60 06 C1 08 96 97 E5
 FC 29 D6 0C 71 A7 18 ED 69 2A BC A1 21 03 16 33
 DC 2C 3C DF C4 53 63 89 B7 8A B3 AE 85 A0 40 8A
 E6 E6 BB 63 C9 7C 8A F9 D8 CA 84 6D 9C 25 FE 78
 EA 3B E9 F9 26 BF E9 96 6A 67 E9 69 FC C3 E7 27
 A3 E2 3A C3 BF 60 E3 3F B1 40 19 AA 29 70 CF BE
 A3 59 84 12 22 90 50 D4 7B DB 2E 6F 22 3A 12 4B
 23 8E D6 A9 CE 24 C0 1B D1 F2 3F 43 07 65 E4 91
 19 8D 4A 0C B5 60 D1 63 0B D2 1B 48 E7 AB 6D E7
 04 57 94 EF A0 AA 07 22 1B 97 84 E8 62 C5 F5 50
 44 C4 B9 8B DB ED F5 DA 3D 08 43 65 F8 8E FD 42
 7C 6E 46 96 5F C4 55 47 94 63 51 FF 39 66 3C E2
 97 B7 E0 F8 88 94 DF 49 53 E6 35 3F BC 52 CC A6
 E2 60 B2 54 EA E4 B6 AF 4E F0 A3 93 78 40 34 59
 D6 2C BB BB 9F BC C3 25 4B 16 A8 1C F3 C2 FC 27
 C4 4F B2 31 01 81 11 FB 72 1D 15 C0 C7 89 A2 82
 28 46 0E 8C BE A6 16 A3 C1 82 2A C9 B7 4B D3 B4
 24 84 F1 BF 66 CC 58 39 20 9B 47 08 A7 D2 66 8A
 D5 0F 61 7B 2D 0E 39 29 6E 25 6C 64 BF B8 D6 7D
 FE DD D8 3D 10 B5 1D FB E8 A1 DB 3E CA 50 C7 0D
 6A 7D C8 3F 2D 0C 1A D3 F5 7D A3 DC AE 3C C1 0B
 46 0D 7B 3A 9C C0 69 9D B6 64 ED 92 BD AE 1C AD
 86 5D 7E 9F CB 63 2A 6A 45 BA B9 4C 6A A8 91 AA
 11 91 E0 C8 F4 06 3B 36 32 71 77 5E 2A 98 8D D4
 1D D0 3E 71 98 F5 9F 57 3D 53 55 39 66 2B C9 FB
 D4 3B F7 B2 F3 9A 89 E8 A6 36 7B 83 8E C8 4F AB
 E1 F6 BC 7E 99 86 34 11 D6 67 7B 51 0E F2 79 D4
 E6 EA E0 C5 2B D7 BC C2 0A 91 2D FA 04 97 90 72
 89 1F 59 8C E0 8D 4F C2 19 41 0F 6A 76 95 82 7B
 8C 03 44 17 E2 11 76 16 6B BC 43 71 57 A8 3B B7
 61 9E D1 27 46 D9 E6 FE FA 97 94 1E 1F 8B C0 4A
 A4 F7 EF DD 33 A3 7A 11 55 9F 90 E5 36 A5 A8 26
 49 5A C7 BA 05 6B 3F 7E 16 95 7E A7 F6 59 E0 4F
 49 37 5E F1 57 73 D9 87 01 78 1E 73 B9 E0 16 7A
 80 B0 8A A6 94 D5 16 CA AD 4F A6 3C 79 7D BB 4F
 90 FD 13 74 68 5E 27 1C C6 C5 4C F6 F7 9F 70 36
 D3 12 19 48 E6 98 C9 20 ED 89 43 29 BF 36 F8 9F
 B7 AA 25 E4 0A 7F C5 D9 EA D8 5E ED FB 0E AF 83
 3C 6A 6D 91 04 9C 3E DA 37 4B 6B 59 D6 D4 42 DB
 E7 6F 10 1B 3F 3E 36 20 2F 07 E0 0C 22 54 EB FB
 7E B6 FE 6E 51 BE 88 73 FA 51 4E 0B 07 BD A2 F9
 61 B1 45 1B 56 C7 66 D4 10 C8 49 36 87 3A 8F 85
 7A 68 9B 00 1E 9A A5 0B 6F D5 89 44 15 BC E7 88
 6C 4C 50 50 EF 4C F7 29 0C 03 1D A9 CF C4 0F 2E
 A2 9A 94 D4 53 A2 A6 70 C0 49 38 CD 66 47 D3 DE
 58 64 86 92 D3 74 AC 04 84 AE B3 EB 05 29 42 B0
 7C F5 9A 0D 32 DB 45 C9 3F 53 56 A2 79 86 09 27
 E3 66 28 2B 26 58 C4 7A DC 3C A6 89 74 7B 3F C9
 C8 21 CB 2F C1 4C 5B 35 29 D8 A4 23 5F A5 5A 1D
 5B 14 C6 5E E9 A6 6D 79 43 B0 60 AB 0B 5D 23 39
 C1 30 DA 50 7A 15 49 04 C4 13 09 7D 30 B9 94 0D
 3D A6 D7 43 E7 EB 57 1C 5E FC BA 69 F7 B1 27 03
 C7 11 33 18 5D B0 8F 29 53 FA CF EE 52 12 57 DC
 4D A7 A1 17 D3 49 AC B1 DE 97 65 6F 84 32 DB 0B
 36 62 4E D8 05 92 24 B0 65 B6 EF 35 B7 A7 B1 4F
 24 15 00 AE 8B 5C 11 FF 07 9E A3 DB 77 CE 04 CF
 3A C0 CE 59 5C B5 A3 DD 81 44 32 57 D9 1F F0 DA
 57 D3 1E E5 99 A3 21 BE 12 96 46 43 1C CA 3E F7
 9E 3F 8F 54 C5 70 8C F5 8A 22 AD 09 2B D7 71 4A
 AE 26 4A 8E 1F 35 B8 17 45 FD 85 62 03 09 25 F6
 60 C1 1C 25 EB 31 07 B6 D3 AE AC 6E 9C 4C 24 F7
 B7 BB 33 4B 2A 5C 56 CD 5B 6E A0 5C 6E 43 4D D9
 E8 3A E1 FF E1 4C FF F2 3F D5 BC E1 D0 CE 57 DC
 B5 37 79 44 16 1A 12 40 04 12 54 29 B2 D4 73 66
 7C DA 3D FB D1 15 4C 25 1D B9 DE 99 24 DC D1 D4
 14 02 F7 92 35 D0 A6 C4 93 B4 ED F3 E7 BB 07 9F
 A7 14 5B 8A FD 89 7A 16 2E 6B 05 40 9D 6F C7 C1
 B1 7D DF FC E2 58 EE BC CF 83 4F 26 E8 F1 3E B5
 7A 1D 74 6A 68 10 AA F3 50 79 10 C0 2C C2 EB DA
 EE 0F 5F 62 90 8D 44 B6 28 5E 12 40 77 BE 86 93
 DF BD 69 5B FB D3 D0 D7 37 39 63 EF CC B1 E5 50
 54 9B CD C8 94 D9 E2 6F 9B 5D CE 44 17 FD E6 62
 B4 72 52 5A CC 7B 96 11 9C 64 2D E6 22 4C 9D 39
 25 CA EA C5 5F 06 9E 35 99 96 96 9F 16 4A 06 50
 49 D0 5E 6C A3 7C 48 70 FB C3 E7 24 95 7E 34 24
 9C 52 8A 1A E6 98 78 35 DB 46 28 4C 64 3E B0 99
 5A AB 6C CB 5D D1 56 30 2C CF 2B 12 32 C1 74 94
 92 B9 97 DE DF 3B 72 55 DD 8A 3C 19 71 43 AD D0
 E7 38 C8 D0 B1 B0 41 B4 42 56 68 76 BF 1B 12 74
 25 99 FC 99 3B BD DB 05 4A 99 32 C4 3C 97 A7 10
 85 9B E3 C1 EB D9 7D 65 EC 28 FE 14 E4 8D FD 6C
 DE 7E 50 90 1A AA A4 AD 60 22 29 03 53 9E EE AB
 34 34 83 30 0F 63 0F D5 5E BA 76 F6 75 A1 8E C7
 63 18 23 9B 88 19 F2 B9 5A C8 42 BE 38 8E 66 F3
 E2 C0 83 6C F6 BB 0C 8B BF 65 EA 12 1B 2B DF 5E
 A7 95 4A 42 F8 B9 3D 57 CC 19 CF 77 11 9B 5D A0
 3A C6 85 FE 66 EB 55 81 A4 E1 A8 0D 86 CF 1B 84
 33 E8 69 C1 9E BF 74 1D B5 2F EA DC BC 96 B0 04
 53 82 3E F7 E3 88 B5 E1 15 D1 63 CE 5D 56 DF 66
 F4 E7 28 37 A5 CE 8E CB 23 24 73 0E FE 5C CB 38
 E1 B0 8B EB 0E 7C 37 91 C0 99 CF 2A E7 62 71 56
 6C 06 2B 4C E1 EE 47 75 B5 53 F6 46 E1 C5 1A 16
 DE 0D C2 AE EE D5 31 7A 11 8F 74 9E 53 F8 71 FB
 C3 2F 82 61 15 83 50 2F 39 B4 D5 0B 69 F9 4C FA
 5E AB C6 12 7B F5 C9 90 50 20 08 E0 5A FA 71 76
 4F 9D 1A D0 7E 62 C1 11 0B 17 1C F4 0E BF BB AD
 BA 32 E7 3F 0F 83 39 B3 1E 86 A8 F2 98 2C C7 02
 E6 EE 7E A2 E5 9E 69 B9 74 AB E0 86 F7 ED A5 33
 F4 33 D2 77 03 08 BB 39 DC BD 74 56 A6 58 52 2B
 58 AE D9 A2 7B 1E AC 2C 1A 48 6D 34 4F 46 EB 0D
 64 95 65 8D 33 0A 3E FE D4 0F 9E 31 8F 68 29 85
 22 E0 CC 3D 81 AA 8F 44 A5 23 01 D7 7B D2 18 82
 C6 06 2F 3E F8 45 6D 9B 5C 32 9B 4B F6 CD 4C 96
 E1 29 19 05 BF 65 DF C0 B7 6C A3 3E 50 33 BD 9A
 DC 08 C0 C4 B2 49 01 FD AC DC 07 06 01 96 20 19
 F3 84 47 B4 D3 C5 B8 02 52 52 02 99 7F 27 44 76
 71 BC B0 B1 15 4B 61 96 CB 50 D0 56 BC 07 A2 79
 8C EC 51 14 A9 0E C2 E6 60 FA 01 F6 47 5C 03 2F
 84 D7 1D C6 06 25 20 D2 24 C0 BA 9F D4 8D 06 46
 F2 8F AB 4D 3F 04 2F B5 A0 79 21 03 86 C7 63 C0
 D9 53 A5 55 C1 E1 74 13 B6 8D E0 C9 8E 35 05 4B
 47 A8 EF D2 2A 0E 3B 7E 4F D3 23 B4 4C C1 6E 6A
 32 FF 6F 3F EC 0A F5 7F A9 CF F6 AF FE 9E 0B 34
 C6 A5 D0 14 AA C4 C7 13 BD AB CF 9E 18 B8 1A 4D
 B4 85 FC C4 7E 1E 55 7D B2 85 EE 30 A0 F7 2D E4
 FA 10 75 C4 A2 DD 08 FE 33 FB 76 9A B5 45 71 B5
 7E 0D B2 E8 0C 07 55 04 2C E3 9F D4 8D 96 44 2D
 B4 D1 DE 1A 1E 20 A4 A4 EA D2 77 F9 27 9C EB 98
 B6 60 10 59 1D D4 C2 51 C5 55 0C 97 36 DF 76 93
 5A DF 97 BD 2F 97 B7 92 D8 CB 57 B9 BE 6D 62 3E
 44 39 0B 26 95 14 90 DC 1F DC 06 A3 67 9A 59 00
 63 8C 25 AC 16 5B D4 EC 37 2B 9D D5 C9 F7 05 7B
 A4 48 0A AF 04 54 FA 6D E9 69 5D 0D 40 64 D0 DC
 42 7A 12 6E 0D 8C 56 36
* End 104652934 3167235068