* LTspice Encrypted File
* 
* This encrypted file has been supplied by a 3rd
* party vendor that does not wish to publicize
* the technology used to implement this library.
* 
* Permission is granted to use this file for
* simulations but not to reverse engineer its
* contents.
* 
* Begin:
 E5 9C 73 60 1B AC 65 41 EC 0C 81 BD 06 9A 6D 0D
 94 A5 3B 57 BF F5 3F DE BC 67 C3 81 9A B9 DB 5F
 74 30 22 6D 81 99 B5 F4 C3 FC 95 A6 64 52 E7 7A
 B9 53 6B B8 88 27 14 24 66 33 10 3C C3 65 1F 67
 73 FA FC 33 F2 C7 AB 95 90 68 F7 0B 67 0E B3 43
 AB AC 62 27 49 39 D4 29 60 7F 69 BF 46 5A E2 08
 7B 9C 46 DE C0 91 A7 CA 20 18 09 BB ED 75 5E 87
 89 23 C5 D2 48 FC C1 B4 39 AD A6 63 AD 06 3F 93
 50 FE 80 07 4A 72 90 EC A1 44 68 42 B8 74 28 9F
 7F 05 8D 28 6D E0 97 2E 3B 53 AD B9 62 E3 EA B2
 66 D4 DC 82 E0 21 CE 51 70 97 E7 D3 F3 4C F0 73
 59 13 D8 D1 1E 45 C9 5D A0 B9 B3 4F 93 FB 31 EE
 45 3D D6 CB 1E B7 66 9C 94 24 4E 73 D7 35 9C 40
 4E 52 B8 DB 09 B1 14 AD B9 AF D0 93 DB 10 98 13
 1C 62 8A 82 8C BB DB 86 1A 4A C7 7B 75 7E 8D B3
 5A 53 75 1B 4D 82 61 1D 9A FB D0 EA 14 22 91 89
 DD 32 87 8E E9 86 DC 6D 09 A2 84 8E 9D 1A 20 8B
 17 01 B4 EC E6 5F 4C 3A EB 0C 2F E0 2B DC FA CB
 11 4A 41 3A 22 30 54 04 CC 98 E4 33 F9 B0 AA D6
 B7 A8 AE 7E F0 2D 6B 12 73 D9 0F 15 65 CB 84 97
 55 E3 3C 51 12 54 60 59 B2 F4 01 FF 20 B8 55 20
 C3 B5 2D 0F 76 D6 87 07 9D BE 0F 0A 7A FA A8 9D
 15 1E 57 44 57 AB 4D D5 F7 7E 86 71 5A E5 FD 18
 B5 50 12 E1 2C 83 BE EB 02 7D 8F 9B 60 99 60 AC
 F4 1C 7B AB C6 6A EC 5E 98 3F 84 42 EC 40 90 93
 A4 D7 91 02 A2 26 50 18 C3 30 8D 76 BD 5E CF 87
 BC 64 63 53 37 7A E7 A9 D2 92 9A 49 22 C6 32 32
 88 16 83 31 BC 8F A4 14 CF 67 06 09 53 1E BC 31
 A0 B6 0E 8E 0F 43 81 FA FD 5A CE 52 DD F7 50 D4
 71 60 0F 0A 0A 3D 34 0C F1 9F 0C F3 07 F4 F5 2B
 3C 8E 8D 3E AB 7F B9 3D 54 29 47 1D D4 73 78 82
 B1 DE 01 C3 43 89 1A 8C 70 EE 3C 95 37 6A 93 27
 79 17 6C B5 8B 4D 72 C9 85 79 D3 BC CF 13 F7 41
 3B A6 97 A2 75 56 9F D3 A4 7A 42 FF 79 D1 E9 71
 90 92 99 C5 92 54 F6 CF 87 42 27 E5 84 8C DB B8
 4E 71 E8 B0 E7 0C 0B C0 6E AE 45 04 E2 F3 70 7F
 58 B0 C0 9D 2A BE 82 DB 72 EA 99 F8 B5 DC 51 8D
 5F 25 C4 7B 6C 5A 33 E6 F8 FC AE 25 08 CC D1 FA
 8E 68 3C 95 33 F4 DA E4 BA 82 2C E3 3C 0A 7D A5
 C4 D9 D7 3F 30 E8 3D AF 0E 8B 09 17 08 FF A7 3C
 D2 F5 51 F7 7F CB DC A0 F5 96 F4 26 9F 46 A9 56
 66 CC 3B C1 4F 0D 6C A3 19 25 DA FA 99 0C 32 84
 96 6D 45 6B F0 CB FC 39 28 CE 94 1B C5 80 24 85
 11 2F 0D EC CC B0 24 F7 CD AB 21 1D 9E E0 2A 41
 28 56 33 67 6B 84 A4 2C BE F9 B2 6C 84 E5 3B 0D
 7F C2 10 EF 7F C9 E5 0C 5C EA 59 42 20 0E 96 EF
 92 1E 04 9A 39 DC 9C 24 71 22 B4 3F C2 5C EE B2
 79 F7 50 CC BE 7A 06 F1 20 BF 6F E1 B3 D8 81 4B
 C0 2D 0B C4 5C 1B 88 74 FA C3 7C BC 0F B1 0C FE
 94 97 B5 DA 6A 00 D0 27 E5 E5 87 13 53 17 71 36
 F5 69 8B 69 C3 45 81 70 3F FB 0B 20 42 0E 88 2E
 94 95 B9 31 AC DC 29 22 FE 13 5E B4 4B 38 42 E3
 E8 83 ED 0A EA F3 09 3F 73 88 E5 7A E2 FD 9F F6
 B5 BE 3C 9D 25 33 D0 E9 20 3D BC 2B 3E 7E ED 04
 03 32 00 7C 80 16 CC 74 6A 0B B2 9F 5B A4 FA 3A
 D3 C7 40 2A 29 4B B0 2E 96 44 19 34 48 17 C2 37
 A5 99 04 2B 85 D4 A4 DE 0C 7A 79 B8 23 33 81 F1
 3E BB 00 BE 55 00 BC 56 B2 4D 09 BE 91 2B 31 0A
 5B 3C 4F DB 46 78 F8 1C EB 5F 85 11 A0 81 A1 10
 0C 75 3C 70 A1 E3 13 15 A9 FE 7B 8C C8 1A 48 54
 B1 9E C0 8B 10 3D DC 57 9C 7C E9 32 3A 6C 8A DD
 79 4B E0 9D 37 32 1B 27 76 B1 C6 F9 53 7F 85 75
 BD 9C D2 EE D1 12 71 5F 93 F0 35 B5 0C 76 1A 89
 1D 49 EA 31 1C C5 AA 6F 56 1F 79 57 54 DB 3F 64
 ED 2A 1F 02 51 F7 56 A2 F5 E8 FF E3 4F 3B 5E 24
 CE 4C 11 0F C4 B9 CD 48 B1 0A 98 A9 89 EC 88 48
 A1 E9 24 B5 B6 9D 81 9F 34 54 B3 26 46 E9 7C DE
 B0 B4 AC 67 2F C0 25 48 3C BB FE A0 18 B6 4A E8
 97 E7 15 D3 EC C4 4C D2 D0 A9 64 8E 23 7F BC 81
 5B B2 6C 7E B9 E7 51 4D 65 F2 AA EC BE B2 3A 6E
 51 6E 4F B3 53 CC 3B D8 E5 99 43 8B DD 7B E4 69
 1E DC D2 05 FE 20 3C 71 C1 97 84 3C D9 E8 8C 8B
 A9 07 FA F5 77 F2 32 D0 C3 D5 60 15 89 64 28 59
 75 7A 48 BE 61 D8 B3 56 3B 54 3B EF 84 16 5F 6B
 95 19 AF 76 1D 1C 5E 2A 03 B7 8D 87 45 2A 63 34
 D5 D7 82 50 E1 4B 1B 27 30 B6 16 BE D6 DD 2A 6F
 9E 9B CC B5 6B E0 4A C1 7E A4 B8 1B B5 77 6C EE
 5A 23 50 00 EF 8F 46 80 A1 86 15 FA 64 79 1A FA
 25 1D 08 F8 4A 63 8C 12 EF DA 06 BA 81 8E 82 9D
 F2 A2 6D E9 AF 89 81 9F B2 5C DF 36 B4 8D 51 64
 44 5B B2 6E ED A2 EF 11 5A D7 71 A0 C7 62 2A 70
 D0 32 02 7C 91 F5 14 09 DC EE 36 D9 71 FA 71 32
 ED 4D 53 06 2E 46 AE BC 48 B0 F9 A2 A4 2A F0 BF
 61 BE 1A 75 F2 1C 46 20 92 3B 36 71 B8 23 EC E2
 C5 22 31 DD C9 9B 15 C3 A9 FB 79 F2 52 34 FC 62
 FE 5E 54 95 80 73 BC 96 D0 3F 4A D2 26 B7 6E 25
 C9 37 06 07 C0 A8 B8 AE C7 DB F7 72 63 2E 0E 9E
 A3 E9 1E 22 BD 07 EC BA 07 B1 7D B5 7B E8 6A A4
 30 45 0D A4 33 24 F5 A2 05 7D 37 17 19 9B C8 88
 2A BF E1 F1 48 EB 8C 34 CB 1E D7 F6 18 1C 99 47
 5B B2 A5 79 4F 07 90 F7 0E 68 5A 58 91 94 BC 9A
 79 4F 37 37 CA AC 92 F5 36 F3 E4 58 B2 C4 42 56
 C8 10 95 ED 8D 6A 01 8F 59 AD 75 7E 6D C4 47 7C
 B4 84 80 D1 94 82 E6 9A 9D 7E 23 B9 4B 47 6E E4
 ED CB 51 BB 1B EE 66 DF 48 16 C1 C9 60 54 E2 1E
 5F F3 09 8E A3 A7 4E BD 66 5F 41 14 6E 82 76 D7
 A6 99 88 30 3D 68 4A 35 4A 43 51 81 0A 2E DC D5
 86 67 77 5D A5 62 68 B3 20 A5 A5 79 44 5C 96 D2
 46 5E 1F A6 58 68 0E D3 23 56 7F AA D7 9D 75 23
 F1 22 D9 56 07 68 8A DB 94 D0 22 D7 CD D7 5B A5
 30 C0 B8 5E 54 D3 7D D4 EE E6 49 0B 88 AC 0D 19
 14 C3 B9 93 4F AB 82 C0 22 C2 BB 24 FC DB 49 6A
 BD 84 E7 8C 00 8F 3A CB 6F 5D AC 8D A9 06 8C E8
 EE DC 39 3E 17 15 F7 1C D1 67 DE EA F7 65 4B 0B
 C4 3C D0 8E C4 30 CA 20 EA 61 D2 CE 45 44 50 6A
 9B B3 A0 C7 67 6E D8 3E D8 2F DA 11 0D FD 9D 44
 7B 4D C8 69 9F 3F EF 34 04 97 92 61 DF 9E 98 7D
 4C 49 EC 58 7D 0D 64 B6 4E 2E C7 E8 53 BC 21 B6
 56 D5 20 61 AA 1E 65 66 A3 A7 06 5B 8A 48 DA D8
 A4 DC EF 10 8D 2A 7E F3 4A 34 59 D3 A7 6D 9F 79
 28 65 30 BE 91 C0 8B 64 D0 C4 D7 39 D2 D1 2A CA
 33 BB A3 D7 2E EB F3 16 6C FA 8A 68 FB 8A A5 CD
 0F 25 35 C2 A0 09 46 74 5E 05 2A 7A F2 CB 18 B8
 30 EE F4 65 5A DC B4 B1 CC B7 71 01 78 18 A7 7F
 22 8B 3F 93 9F F6 E1 A3 72 39 B7 96 CD 0E 39 74
 A6 78 48 B3 05 C2 74 28 B6 3A 23 06 FE FE 37 98
 B7 52 15 02 93 40 7E 16 47 9F 6C BD C8 89 BA AA
 D7 18 9D 5F B9 5C E3 D3 9F 7A 03 85 51 F5 DE D7
 AF F2 C0 03 17 CD 77 77 2F 61 56 DA FB 36 A1 DF
 C1 DB 8E 19 CB D3 4B 84 57 6E 7B 52 62 71 C6 92
 2E 82 AE 26 FA 39 D8 59 D5 2C E6 C7 E2 AC 3D 62
 D9 87 D9 6B 8F E9 4A 31 4C 1C F0 AE 7D 5F B1 17
 23 B2 39 C6 01 9B 17 70 8C 9E D8 08 9C 26 52 0D
 CC EF AB 2C 11 94 6B B8 9E 07 7E B7 2A 1D 40 14
 E4 32 E8 6E AC 05 87 F4 C8 9A 4F C9 C0 B4 3C 01
 D7 72 D5 7F B7 F9 A9 C1 9C CB AA 78 36 13 B3 CA
 D0 50 63 31 CD 94 A9 B7 C6 43 DB C7 DF 61 78 5D
 27 AC 31 08 66 D7 3A 79 EE 44 71 24 34 6E AD CD
 CC A2 1F CA EE 7D E7 D1 B9 5B 8C B0 E8 36 FB 0E
 DB D0 9C 97 5A F6 F0 3E A5 49 6A F8 9E BC 5D 6A
 52 FA 69 09 AA 13 E9 E1 B1 40 A4 BD D2 64 97 86
 88 F8 42 51 3C 2D 24 93 A8 A2 0C 34 7A E5 77 8E
 06 2B C3 35 A0 E4 CF BE CC 25 44 36 74 19 C0 7E
 D7 E6 E4 F4 5B 38 2B 29 09 8D 84 30 A8 14 2C 78
 30 1B EF 04 1F C2 0F 17 B7 46 0B 04 B0 CD 6C 0A
 CA 5F B3 AF DC 5A 55 67 AE B1 37 15 3C AD B8 32
 50 25 C2 24 40 0A 24 B6 DB 7F 4A F5 B6 69 8D CF
 FA CF 51 62 32 2C 23 CD D8 13 01 68 02 04 E7 EA
 F4 CB C6 EC AF 89 51 E2 F5 7C E3 55 52 54 59 2A
 F4 01 DC 1B B0 6E DA 4E 96 2F 12 6C 05 AD F5 01
 84 F3 CC 51 AF 32 B0 72 0C F1 D3 3F BE AD 6B 71
 31 6E C2 F2 5D 5D BF 09 07 56 74 68 43 25 6E 75
 60 C0 A3 DA 7A 8C 74 1D 9C 61 E5 60 90 AC 87 B0
 09 E3 C0 14 96 25 BC A0 55 3D 29 9C B3 24 CF 8C
 46 B1 5F 28 58 D0 D7 C7 6D 3D 7D B9 9D CD CD 27
 1D 97 09 4D A7 EE BE 36 2C 5B ED 16 99 4E 8E 4B
 09 B7 C5 F0 D0 EC 04 D0 0F 75 85 E2 BB 4A 03 5D
 07 4E 50 16 E1 A3 F6 1A 9D 7F 97 E5 04 36 CE 9E
 6F F1 68 D4 7D BE 57 05 6A 92 11 D5 D9 66 D8 F3
 50 A4 A9 CF AD F4 F7 1D 8E 64 F1 D2 A2 C7 5F C9
 8F F4 C0 56 63 35 72 10 F2 F4 E6 0B AC FB 0A 76
 1B D7 7B B9 D0 75 27 94 58 BE CD 94 07 91 2B 80
 5A 4D 50 80 C8 A7 5F 17 C5 EA 4F 83 34 94 BF 14
 E1 A3 94 9F 90 7A 21 6B 2B 22 F2 70 E4 87 71 E5
 D9 88 89 8E F7 44 BD CD 4A A1 BB 62 0D AE DE 5B
 06 CF 54 03 F4 FD 79 38 D9 7E 1C 72 04 8D C2 0A
 AE 57 B0 B8 B8 82 36 60 F9 E7 BA 8A 5A 46 85 20
 EE 7C FE 13 B5 6F A9 DE A8 91 2A 29 2B 6F 30 C5
 A4 34 F8 08 DD 6D DC F9 ED FF 13 7C A2 3F 9D D8
 CD F7 DB 7C 87 2C CE E3 07 21 3A 35 35 26 39 CC
 B1 12 CC 8D 23 3C 59 A4 B2 79 60 7C F9 00 2A D0
 7A A4 14 BF 1C 78 07 19 B5 AD 21 0A BB F8 59 87
 3D FA 0F 8F 7A 1D 1E 15 C9 2C 4B E0 59 3A 19 C8
 19 6D EB 1D 69 8A F7 FE EB 87 AF 01 1F D4 26 25
 AC 12 A1 00 69 13 7A 7B 6C 2A 1C 7B 70 A1 06 CD
 A7 F2 5E B5 75 1D F2 82 5F F0 F1 3F 5F 6A 0C 14
 20 EF 7F CC 9A 7F B3 9E 5E 16 0E 15 19 D9 28 1C
 FD D6 2A DA 6D A6 44 91 E1 F7 4E 46 CC 1C 34 57
 F4 08 99 F9 44 2E 64 6B 09 C9 91 72 DA A6 BC A5
 0D FC 17 10 34 4A 1E FA F3 C5 72 5E 0C CB 5A 1C
 04 57 42 C9 D2 66 E1 F1 83 99 A1 CC 57 02 A4 02
 3D A5 3B B4 47 1D B0 45 05 78 38 6C 03 68 40 AE
 63 D7 A7 35 BA AB A7 ED 92 D9 5A EB 3F 5F AD F6
 21 2B E7 2E 3F D4 48 6B 40 4F 22 F4 26 35 F1 98
 38 50 03 4D 70 43 CE BD FC 19 51 B6 A7 B5 29 C1
 14 E6 FD 19 9A B1 E2 1C 83 5D 11 2C C4 12 01 60
 23 FD A4 FC AE 3A 9E A0 E4 AC 48 B7 73 41 AC 14
 B5 99 5F 65 38 A7 25 9B 1B 3D 4E 8E A6 0D E5 32
 5F A0 64 18 7E 93 DA 21 47 BA 48 A2 C1 48 1A EE
 48 38 A4 75 E0 B5 35 CE D2 F1 00 22 83 B6 55 91
 C0 8B B0 18 FF 8C BE 0D 13 9B 76 43 E8 A6 8C 3A
 7C 83 FC DD 3A 67 12 EC C8 B8 67 29 25 04 0E C8
 B1 93 7A 26 4D 33 A4 38 39 97 D0 45 4D D2 6D C3
 B2 59 36 C1 F8 1F 94 81 32 B6 D8 50 1F C3 0A E2
 5C D1 1A A2 38 B5 F6 7A AD 4B 12 77 27 A5 97 C8
 62 64 FA 20 94 A6 35 1D 78 A1 CD 2A E6 CC D9 C1
 32 7C 15 73 BC FD F4 8E 21 18 E1 A5 19 00 11 AC
 66 4E 26 23 F6 CD 78 91 52 A6 C7 33 16 06 29 6E
 A4 D9 DF 04 BC 57 2A 2D E2 B1 72 A8 0C F0 9E E5
 D7 7A BF AF 65 9F 22 ED B8 56 F8 75 BA 17 47 FB
 AF F5 EF FB 84 6F 9C 6A 35 BA 37 35 C2 8F B5 89
 6B 43 59 C7 6B 32 43 C5 3F 77 4D F5 C0 8F 00 94
 D9 87 5F 4C 60 83 BF B9 8C 36 B8 01 A2 9C 57 CF
 C9 62 1B 46 6E 10 56 D8 E6 A6 56 20 A9 9F 2E 7D
 B3 9B 89 CF 21 9F B4 75 AD 0D E0 BB 7A 92 D4 97
 15 C8 0A 83 3E EC C0 BF 3B 9E EC 19 50 0D 24 BD
 83 82 EA F3 77 20 3D F6 9C 01 4D 01 DF 63 52 40
 77 02 74 44 36 A2 4E 4A 33 EB AA 61 92 04 C1 31
 C4 03 74 37 A6 FA 1F 15 02 FC A0 68 24 91 85 CE
 4B 28 1F 9F 60 26 27 24 69 63 87 19 51 3B D4 44
 9C C0 BE 0E 04 63 0F B5 E4 41 45 0D 96 1E C6 C8
 6A CE 1E D6 FD D2 21 72 3F 34 83 06 4F 1D 6E E0
 BF C0 5F DF 2B 48 F8 7F 5B DC 60 CF 38 A1 8D 33
 89 A3 77 BE 90 FB A1 C7 AC 3F DB 97 11 4C 8D BA
 B7 8F AC E2 25 D7 5D B1 80 A5 13 0D 51 1C BC 85
 EB 0C E9 48 16 AE A6 0E CF 4F D8 9F 16 B1 3F 7D
 41 FA F3 8A 39 A9 40 57 A0 B2 09 1F 39 66 49 AB
 50 26 4B 2E E3 61 0C 44 91 3E 73 E8 3A 65 A3 E5
 44 94 BB D0 EF CC 26 A9 31 E6 EF 73 78 0E 28 E0
 FB 53 06 92 4D FC 3D 89 0C F5 7F 2E 9F E0 E2 3A
 2B 85 70 95 7F A1 F4 48 1C C5 5C A1 C2 54 88 65
 6C 3E 9D 19 61 B1 D0 BD 57 47 96 4D BE F5 B4 69
 28 F4 90 0A BF E6 31 4B 1C 1E C2 0C B1 F3 5D B4
 7F 59 CE D7 FC 0A 34 B9 37 FB 50 37 39 AE EA 57
 B2 67 D3 AF B4 44 6A 5C 7E 78 3E B4 39 3A 3F DD
 E8 62 B9 2D 6C AA 7D 50 2A BB C4 29 9D 39 F5 7D
 2B 46 34 E7 BA 7D 1B B1 26 97 85 57 DC 3D E8 0E
 B3 C8 00 41 9A 9F FA B4 EB AB 49 6E AF C9 CF B3
 F9 24 E9 74 CC 6D 0C 5C 97 E9 00 8D 09 83 5F E0
 3A 41 B8 4C C5 D0 09 1A C1 6E 98 5A 50 48 52 78
 E5 52 CE 68 77 21 02 81 12 DB B5 FC EF AE 24 15
 45 1B 86 75 D8 DB F3 A2 D6 3F 46 4F 07 53 65 85
 9A 5D FF 12 F5 EB 08 7E 5F 2F A5 C2 D4 E0 21 EF
 A0 B2 8E 9D A3 31 1C 9E C2 21 39 D1 63 B4 30 B9
 8B 2C 9F 49 6B 68 70 32 26 FA 14 15 43 CF 08 5E
 00 F4 D4 9A 03 1A B0 04 66 BF 61 7C E0 4C 18 1D
 AD 0A 96 6F 6E E1 1C 64 CA FC 8D C0 20 41 BB 00
 FB DC 1B A8 C9 03 81 44 17 C3 7E 2F 4F 62 9C 59
 4A 75 D3 3C 1E 40 FC 86 C5 7E 56 3B AF E3 27 72
 1D C0 0F 75 EC E3 94 80 0F 5E 00 8C 93 B1 5E 7D
 63 B8 FD 3D 8B 1E 42 F3 76 9B EA 2F A6 2A 4B 44
 8E 97 3C DE AD B0 D3 F6 DC 12 7A 00 44 40 24 64
 37 19 51 D5 38 E4 72 6E 0F 14 39 5D 72 90 82 F7
 1E 1C 76 CE 59 23 6E 9F 58 8B 58 CF 9A 6E 14 48
 B9 D1 DA 69 84 17 7D FE C7 D9 08 76 93 46 88 BE
 6A 0D 40 66 01 65 C8 94 21 08 69 F4 2E 61 50 A8
 AD 9F 74 61 1B 75 D7 57 25 41 CD D5 7F 19 80 FC
 DB 5F 49 13 20 69 5C 85 3E A9 B0 82 62 2D 95 40
 5F 61 07 EC 91 7B 58 B0 50 61 B2 80 51 DC 2D D1
 73 E2 83 E3 D7 72 4E EB 58 E4 3A F1 35 2D C3 AC
 0B DF BE E7 4B 33 29 83 79 E6 0F 2B E2 A2 30 EE
 2C 90 CB A5 2A 52 19 88 3C 5C 0B 5F D9 CE C0 B1
 37 9D 1B 04 62 AC D0 0C 1C 39 7C F1 1F 5F 4B AC
 D6 5B 28 DB 21 67 26 47 D4 E9 27 42 AE 45 8B 03
 0B E8 18 66 49 49 15 34 C1 54 2F B4 D4 EB 74 29
 18 7D EF D2 99 A8 65 A4 CB 86 9D 68 52 BA 33 AA
 B9 E6 30 2D 27 1D 2F 8D 17 81 A7 C0 CF 27 C6 8E
 A6 14 5D BC AC 52 71 58 37 02 8D 9B 9F F1 2E E4
 6B BC 09 EE 87 73 76 F4 B6 C3 1B AB 42 E5 97 D9
 3D 02 4D A5 BB 21 C6 AE 6B EA FA 95 E5 44 CD 1F
 64 75 B0 EC E2 57 9E D0 7E DD C6 36 EC EF EC 76
 CB C5 C5 35 DF 6C 45 B8 17 15 91 4E 48 6E 41 12
 E5 FC 5A 94 17 60 ED 10 FE BF D6 E2 E8 8F 6F 9B
 B5 19 6D BB DE 37 42 94 85 4C 61 08 40 4A 92 B9
 33 24 3E F7 A4 A8 B7 3F 72 D7 6F 76 62 A9 AD AE
 27 47 BB 16 64 43 5F 9D 58 A0 85 83 86 3B D7 47
 73 D0 2A 9C 05 60 D2 7E BC 73 CA 1C EF F5 00 8B
 38 EF BB D3 AE EC 32 0D CD C0 2A 79 2F EA 3D 7A
 50 12 F7 C0 8F F0 67 51 3A AE 69 64 45 6E 9E 3C
 C2 4B CA 59 74 E9 5D 20 6A 4B 30 84 59 8D 19 23
 82 19 89 E2 70 56 84 B1 BC 88 D1 02 05 19 28 55
 03 3D 2B 7D 1D D1 04 20 AD 33 F3 51 D3 3F AA FE
 D7 E5 87 D2 80 01 26 16 3F 87 5D 57 DD 1B 2C 90
 8C DF 7D 34 97 FB B6 0A B3 6C 2D BC D1 DC E5 94
 3B 15 38 E2 73 68 EA 53 65 17 44 E0 05 BB BC DC
 C5 C1 DB 87 F1 E6 C5 F8 33 B4 D9 E4 88 5A 08 C3
 8B 4E 09 7A DC A2 EC 25 36 F6 CB F1 49 EC C9 F1
 BB C6 A3 15 B3 8F 2C 7C A5 7D D1 26 D7 DC E8 CB
 3B C4 ED F5 2C 54 E9 FE 38 9C AB 1C A3 39 AF 01
 A6 DB 92 18 BC 4F B1 A8 5D A4 F6 93 9D 8A E5 8C
 FE A4 72 89 A6 09 3E A5 DA 3F C5 6F 63 22 C1 2A
 CE 31 DA 41 3C 42 61 B8 72 AF 9A 5A 7C 46 36 10
 7B D0 85 51 CD A7 88 9F 50 FB 95 2B 7B DC 9F C0
 2F 55 56 DD 6A E9 98 41 8D DB 62 52 36 1B 9A 44
 FB 72 F5 ED 7A 94 B9 5C 60 1A 6F 10 D9 88 47 E8
 C3 1E 91 1B BA 0D 48 86 C7 BC 38 A7 71 2B 07 FF
 D6 78 CF 07 7C C6 C9 C3 2E 5C 49 B2 45 6B 5C 8E
 9F FF 73 CD C0 BD 15 8B BF 3D FC A0 6E 9A F4 14
 A9 D0 B6 EE C3 7D 4A CE C0 99 B5 A5 1D 4B 0A 48
 0A 41 50 45 2C 31 6A 7B 1E 3D 08 30 3B 49 C2 42
 A0 B1 9D 59 ED 81 96 92 B5 E3 9E BE 3B 64 7B 80
 C9 51 50 8D 93 B5 56 A7 03 55 43 E1 70 AE 77 8A
 A9 94 E9 2A 07 2D 1C 7A 96 F9 B9 06 02 53 0D 0D
 65 72 DA 71 22 B2 01 B4 4D D3 94 0E D7 2A C7 4E
 2D E2 90 01 A7 E0 00 AD DB FC BA A6 75 B7 8B F2
 20 52 A0 0C B4 54 EE B2 43 0F D3 CD 50 57 15 41
 0B 82 7F 78 58 03 87 8D 78 B2 8D C4 60 CE 36 F6
 3F 8E 79 02 1C 60 BD 3C 67 45 E4 BA 37 31 53 6B
 57 9B E7 AE CA 97 05 23 AA 02 F9 F9 32 66 F8 32
 A2 67 B6 87 3E DF 38 30 A8 0C B5 6F 43 2A 2D D4
 7D 30 B9 E2 20 D5 DB FB 07 4C 36 84 E1 A2 1A 4E
 68 B2 97 9C 0A E6 FB E8 F0 AD E0 44 6D B0 62 9C
 4A 12 A6 0E EB 26 15 2E DF 26 2E 04 E3 73 6E E9
 94 FF 38 6A 25 16 54 EB 62 8F 65 6B 7C F7 7D 0B
 78 CD 5E 3B C4 BA 23 C9 18 C1 37 59 8C 2B 7B B8
 C1 8C 7D 08 C8 B3 AC 85 2D FF 31 50 3C 61 D0 F0
 DC 88 22 8C 52 48 0D 43 EF 23 F4 AA C9 94 4A 8A
 5B 5B 60 CF D6 A8 59 42 89 FF 9F A0 0E BA B7 67
 B8 7B 82 21 1C 66 BD DD F3 91 3E BD 10 4F AD 74
 C1 B1 25 46 D1 8A 31 3F F6 3C 15 8F F2 B3 DF EE
 62 B6 1E 18 FB 78 74 AC 3A 98 8A 17 71 E7 39 C1
 13 12 14 94 61 8D 7C E4 E6 7C A6 56 DC 7B 3A A6
 A7 67 A7 B4 11 F1 E8 9A 9D 8B 14 75 C2 A7 FD F3
 B1 EC 14 82 38 08 93 2E C6 4E FA F9 C4 F3 B5 90
 F8 9E CA 99 25 5E 6D F1 4B 59 6D 61 54 10 71 21
 93 05 27 CE 24 E1 6F 6B 28 CF 31 E9 6A 24 93 E9
 11 39 E4 24 DF 10 3E B2 4A 9C 77 2D B6 01 4B 70
 44 12 BC E0 8C 9C E1 56 7C DA D5 FC EE 3F 47 E6
 E7 28 00 A0 F4 66 94 59 0A A7 BD 2C AF 85 51 D8
 71 F2 16 F5 68 2C 83 71 23 C4 55 72 22 A1 9E 9A
 9D E5 B1 32 34 27 D2 EE F6 6E 2B 8F C2 CC CE 36
 C1 07 DA 5E 7A 5A 66 51 2F C4 02 91 50 B5 51 53
 4A 4A C5 AF EA E4 F3 80 B0 2B 93 67 61 C0 19 6D
 FB 82 95 EF 13 F8 2C 4A 4A 67 AF D6 B6 87 90 82
 A6 78 EA F5 8C 35 63 D9 07 F4 19 DA 13 F0 7B 41
 3E B6 E9 3F BE B1 EB C3 4A 34 10 C6 47 FD 4C 8A
 BE 0A 0B C6 41 F7 41 E4 91 E6 F7 E2 5B 54 FB C9
 83 BF D5 35 8B C9 A8 B1 46 21 9B 9E 16 F9 0F 09
 5C C9 2E 49 19 3C EB 68 3B B2 BB 05 BB 63 4F 08
 C0 07 10 0C 65 20 10 0B A3 3F 0C D8 84 1A D5 FF
 82 27 B6 94 0F 56 EE 4B 47 F9 00 BE 71 0E 11 8C
 E4 16 02 4B AE 63 E1 C2 06 CE 88 1C 8B ED AC 98
 CB 78 2D 49 DD 30 EB B0 19 72 88 E0 F1 D4 A4 91
 FF 35 6F CE 70 9F F3 B2 E8 9D C3 C6 A1 75 8C E3
 48 C9 EC C3 F2 0F C7 88 80 28 A4 F0 A3 81 58 66
 15 A6 FF FB E5 6F BA EF 17 80 58 E3 FB DB 55 25
 75 D6 50 3F 92 E8 72 C5 73 ED 18 66 E5 61 22 04
 F5 13 A4 E8 84 89 4E 81 BB B2 E4 78 86 7F 0E D8
 E1 DE B0 1E D1 DA 52 52 A5 41 76 E1 35 CB DD E9
 CD 2F 32 1B DD 21 2B B2 CB 95 FF 18 30 1C F0 EB
 19 94 C7 D2 E1 82 A5 16 01 33 0D CA F0 16 80 E6
 4C 21 32 C2 6A 51 D3 72 54 93 C3 2B 07 21 40 F3
 02 D6 46 72 B6 82 6B DF E9 73 92 89 2B 83 1E 20
 35 50 4B 9F 7C 6D 1C 04 D3 A3 D6 B2 47 ED 62 43
 D1 4A A4 C7 ED 57 CC 55 1F F3 70 33 1F 86 79 98
 B9 1A A6 98 B3 01 3F E2 F3 F9 61 31 D9 95 7A 73
 68 8E 35 3D 76 30 9C 24 04 35 C3 54 53 16 7F 2B
 75 D1 CD 8A DD 88 74 E6 B8 64 A2 0F F7 C0 A0 3D
 17 BD A6 7B 6B D3 09 20 12 16 97 6C 29 2D 95 E5
 AD DB 40 C5 EB 0B 31 7E 71 9F 59 08 07 A4 D9 55
 3B 0B 60 ED 45 6C D1 64 FF AF 00 7A 4E 0A 58 5E
 DC 4F 7F 1C E6 0E 48 1F C3 CC DF 20 6C ED B3 F3
 0B 8D 51 05 66 6B 25 94 4D 32 7A AF B5 FC B0 AD
 75 85 D5 4F 7E 0D 97 B1 03 99 5F 61 2A CE 42 51
 F3 70 C3 A7 C8 5F B8 45 A6 5B A0 98 E5 92 E9 1F
 E9 90 64 BF E1 8A E4 F3 05 8A 7C 5A 90 BD D1 CC
 E1 35 AA 72 E1 9F BC 46 0D D3 49 71 C6 88 C4 B5
 29 2D DE 33 EB 59 BB E1 22 7C B8 7C 89 9E F3 AF
 FF 17 B0 6E 17 7B 42 FB 78 EC 7B 36 E0 D3 83 C0
 26 02 80 E6 4E 0C 40 91 C2 94 39 0A BC BC 40 D5
 4E C9 2B A8 B9 E7 D7 31 5C A6 A1 86 D1 D7 85 B4
 16 F5 A8 78 38 79 45 54 1F DD DE AB C7 EF F8 36
 4B EF 6F 7E D1 4C 89 04 92 01 B6 24 01 1E E6 34
 4F DE F5 1B F3 C8 AA F9 73 BE A8 AF B0 B4 8B 81
 01 A3 0B 2E FB 6C 28 7D 79 DF 67 48 1B C9 0E B4
 53 79 1A 2E 82 53 E9 00 C2 AC FA 32 C8 0B CD 6E
 2C 1B 68 96 2C A3 63 94 20 B1 E4 E3 2E A3 75 18
 F1 21 20 0B 79 70 B4 80 57 81 B7 40 AD 62 6B 5E
 DB EE 44 96 8E 96 B3 41 63 CF C2 82 BC 05 FC 79
 F3 A1 42 4F 38 8C 64 74 AE B3 E8 74 F5 F9 A2 31
 72 C2 B3 12 4B 90 A8 A0 C1 D9 5C D8 05 60 95 56
 E3 73 E7 94 46 F3 26 25 6A 70 E9 DA CA 11 E5 B3
 E7 CF 73 74 3A C5 09 3F CC F3 CA 37 D9 CD 65 5F
 F1 B3 51 93 0D 5E CD 5C 9C D1 F8 B4 E4 CB E0 B5
 85 59 01 10 69 D8 5D 37 36 E2 32 6A C0 F5 D5 04
 AC 78 A2 A3 9D 97 4E C3 1A 64 34 F7 29 72 26 DF
 01 99 23 D2 2A C4 07 5D F4 EC 22 54 2C EC A9 4E
 48 16 B2 9C 92 F3 A6 D4 B5 40 E7 A2 9B 63 5C F7
 BD 2A CA C8 A8 9A 11 10 A0 52 01 BB 88 C7 E4 05
 BE E4 FA 2C 7F 14 C9 D9 66 A2 11 27 94 07 AD CF
 C5 5B 5E DA B2 C3 4B C0 7E 7F 89 73 63 30 00 FE
 D7 07 68 FD 00 5E F4 FF A8 2F 11 86 56 77 51 55
 41 0A 99 3F 04 DC 23 D4 87 3E 44 CA 17 0F 11 5F
 26 83 0F AA 13 58 EB 72 75 DD F4 3A 50 71 0A DF
 91 DF 1D 2F 49 DC 7C B8 0D 69 F3 16 5C EE 4C 3C
 04 85 3F E7 D4 E2 8E CC 58 E9 9B 5D 78 44 99 D9
 78 BD 76 D7 89 9D 35 5D D7 E6 E6 78 1E 7A E6 2E
 11 54 D8 04 84 49 58 1C 96 FD 5A E7 62 18 11 4B
 42 48 DB 84 D1 B1 7A 6B 6B EF 24 E1 5C 10 5E F8
 B1 54 36 35 E2 ED 5B 3C 0B AC 24 15 1D 62 FF 9D
 58 DA 73 82 1F 5B 3C 8F 1A 99 E9 53 FF DC CD C7
 D1 77 53 B5 F9 55 A3 CC B8 76 47 9A 50 FD FE 76
 C4 01 93 88 92 13 EB D3 D4 36 10 45 D5 07 A5 B8
 1F 62 84 1E 3E 07 DC 82 7E ED 10 F0 CA 0A 19 30
 E3 48 D5 25 1E 38 F7 65 6B 7F B4 7B 8F E8 6A 22
 2D C9 61 28 37 60 DA 66 74 78 42 F3 DE 6B E3 D9
 33 77 39 BB A0 8A 16 72 07 3E 0A 11 B4 4D 85 CD
 98 FA 94 E7 DB 37 A3 E2 02 79 81 DA BA 14 07 22
 50 06 7C F7 01 E3 94 4C 46 88 32 F2 6B 15 07 09
 A3 85 AB F0 EB EC 37 BF 94 DD 7C 04 C5 3B 1A 9A
 D2 C4 F7 9A 9F EF 22 41 46 3F 54 98 CA 5E 45 2E
* End 2464892000 3476779668