* LTspice Encrypted File
* 
* This encrypted file has been supplied by a 3rd
* party vendor that does not wish to publicize
* the technology used to implement this library.
* 
* Permission is granted to use this file for
* simulations but not to reverse engineer its
* contents.
* 
* Begin:
 1C 8D 1B 5C D4 06 A2 55 C7 2A AC 05 7C F1 03 17
 A3 26 85 8D F9 E1 18 D4 0C 20 4B B0 63 15 DF 22
 5C 5D 90 D7 BD CA 33 A5 CD 6C C3 85 2E 11 1E D2
 BE 2C FF 7E 45 99 7C 1C 2B CD 04 4E 47 30 FB D5
 E6 2D EA 7E 20 CC 8E 96 CE 3C E0 E5 CE D1 39 63
 29 E6 EB 67 02 CA 85 7E 59 51 BE C7 31 B2 EB 5B
 CF B8 E4 B1 F2 4E DA 3A D0 5D 40 FE A8 47 1F D7
 FC EF 71 9A 65 25 1D 39 A7 17 0A A1 93 E5 80 73
 D7 55 60 A7 16 C4 7F 05 39 BC 9F 89 3E 4C 9C 3C
 FE 27 7D B3 94 79 15 D9 28 EA C5 D6 B1 22 4C A6
 4B 59 7C B8 5F 1C B7 A3 01 1C 8A 29 DA 29 57 7E
 D4 81 C2 1A DB 1D 82 37 3B 6F 25 CB FD 40 E0 0F
 E4 38 6E AD 95 50 B6 8D E0 28 05 AA E8 BB 7B 4E
 76 69 1D 3F DB D4 CD DE 87 7A CD 66 F0 BD EE 8E
 86 2E FF 7B AA 25 88 38 0C 59 07 AD BC 22 2B 80
 EA 16 24 39 BD 89 A6 56 47 98 05 48 07 B0 6C 88
 EC AB E0 D0 53 C1 38 D4 71 BC 78 5D DA 2B FF 76
 11 EA 42 04 F6 EF 54 45 D7 47 46 D2 B2 ED 22 04
 FF DA 4A 0D 0C 7C C5 63 AA 0B 1C 7C 6D 97 AA 77
 AF 81 40 8C 94 C5 8E A8 79 BF A4 CC D9 FA B4 5B
 C5 DD 81 8B 8D 95 FD BA C4 CA C4 1F F5 40 84 7F
 F6 B4 67 C0 84 DA 0C 76 0D 22 CD 5B 11 71 0B 15
 01 2A A3 9B 4E 88 B3 B9 44 00 FD 74 39 36 FA CD
 6E 3E 6C 84 AB BC 2C 38 1C 06 00 E1 5F 3C 3D 59
 3A 73 E5 9A C5 46 0D 5E A0 5F EA 92 F9 6A 44 A4
 CA 70 B8 E3 F8 70 E0 04 5D 89 3C C7 E1 6F EA 58
 35 C1 94 87 8A 4C 9B 5C D4 3A 1B C4 56 2C 42 99
 25 D1 B6 59 1F D2 D5 86 B8 43 BE 76 B4 3E 5D D6
 09 D7 A6 78 EE FE 62 0A B8 AD A7 CD C5 38 D8 A7
 D9 2C 6A A0 30 ED 5A 83 46 0D CB E5 69 76 3F 56
 B1 E7 36 C8 C4 B2 B0 17 1E 0E 7A D7 1F F2 41 81
 D2 26 50 FE 08 AD A2 12 5C DE 99 B2 7B F9 0B 87
 AE 4D 69 D4 F8 A6 54 94 DD 8B 22 4C 39 F5 3C 1D
 FD 58 6B DB DD EA DF A8 B7 E1 56 06 F8 DB 5D B8
 B7 EB B7 5C 54 1D 31 E2 C4 74 3F 7D AF 2D 45 CE
 B1 9E 78 BE 92 F9 F3 33 9D 59 63 C7 E3 7C 5D 0B
 E7 D2 26 AC 1D E6 80 BB 7D C2 3F 68 4A 8F 5D 4B
 19 BC 2B B7 DE 2A 48 E7 DF 9F E1 C2 30 72 56 9F
 52 A6 F7 4E 1F 8C CD 65 F5 B9 5B EE F0 CC 4D 3E
 9F 93 4D C1 12 DC FC 26 99 04 6B 33 3E 14 D0 F8
 52 2A 32 10 DB 5F 90 69 F1 2B 3D 1C F5 0E 99 6C
 13 38 29 8B 77 18 15 41 28 E4 3D 10 52 7D 51 15
 45 A1 E1 C5 4C 52 27 7C D0 3E B3 24 FD FE B0 DD
 A9 30 4B 78 06 B9 25 D3 1F 5F 76 4B 79 93 99 8E
 2D D2 49 BF 14 0C 2C 03 6E 9B 85 06 E6 6F B4 81
 FF 52 03 C4 3C C4 55 1F 98 0B E4 96 09 CA 70 3F
 6B 5D 79 94 20 A1 ED 19 ED CA 57 F8 B6 73 BC 51
 10 38 C7 39 DA 84 E9 FE 96 5C D2 31 A9 8E A7 F3
 F5 14 A9 81 7E 91 CE 02 69 F1 78 FA CF 90 5B F9
 83 67 8B 98 5E 80 AD 74 5E D5 71 2D D3 D6 01 40
 59 5B 17 FE D1 2E D3 7D 7A 2F 50 D7 81 BE 29 C1
 62 CF 45 31 66 D3 9D 2F F5 DF E8 F1 11 9A AB C6
 DC B8 E2 0A DF 67 1F A9 98 A3 28 97 8C 0F E8 B0
 55 0F 5C 20 2E 75 EC CB 80 3B 1A 37 C8 9F 6E 28
 52 D9 5B 1B A6 11 53 B8 02 23 CB E7 BB AC 0D AD
 6F 81 50 BD FD BA C1 34 F0 BD 64 76 EE 56 6D 95
 B7 0A 22 FE BF 4B 66 F6 C0 D5 31 7D 27 D6 E8 9E
 AA 9B 32 7B 6B 27 48 93 F0 7F 8A 83 2E F7 43 92
 15 48 1A 50 0B 70 C0 88 97 D8 B8 A2 25 9F 37 E3
 4F 1D 13 35 9E A6 8D 3B 36 69 87 C4 F8 8E 78 AC
 CF 11 0F F3 49 0D 85 A6 AF 6B 4B 01 1F 47 78 79
 C9 82 E2 96 13 2C 77 FF 1F D2 48 BA 92 C4 1B 67
 3F 81 D1 4B BD 1C 86 51 A9 1C BE 75 30 FA 9F 2A
 C0 FD C2 54 EC 6A F2 6D 70 D1 D0 A1 59 B2 E2 D7
 97 C8 54 28 8D 75 E5 2E 03 46 A7 1F 87 BE 49 8A
 3E F4 6A D0 72 02 1E 00 93 D7 1C 94 0E F5 55 C5
 9A 86 9C AF AF 45 94 20 06 F8 49 0A 29 B2 3E 40
 B1 F2 1F 75 9B A4 3E 55 8D FF 74 1C B7 F0 62 10
 20 CA 6A 3F 82 C1 C5 DA 84 25 72 63 4F 4C 95 12
 6B CE 49 07 2C EE BB 03 5E 35 0E 6C E0 E7 25 F4
 07 D2 BD 51 8F F0 EC 96 3C 7A 3A B9 3F FD AE 86
 23 69 E7 07 46 EA B3 1C 22 EC 87 4B C8 CF E6 E7
 C5 48 D8 5D 57 45 22 14 06 99 8C 37 97 7F 9A A4
 FD 67 51 83 BF 48 66 A6 DE 66 43 1A 3D 8B 4D CC
 A0 49 40 37 D1 9B C1 BE 2D 98 8D F0 8E 29 FE FD
 54 86 9C 0A AB 82 52 90 37 B6 40 88 04 1C 24 1A
 E6 98 78 47 61 96 09 4E E3 CD 97 7B D8 F7 D7 89
 9E 38 16 EB 49 2F CA 7D C3 F2 53 9F D0 75 00 CF
 2E EA F1 4A CC 35 66 41 69 E6 59 3B E1 FF 8C 23
 E2 DD 4F F5 8B D7 F9 1B F1 B6 90 AA 71 6D FC 7E
 DA 07 44 A4 84 9F 5B 0F 25 F0 A1 67 5F 45 F4 21
 86 16 77 05 A4 70 C2 2D 0D 25 13 F7 3A 3D 2B 86
 1B 81 46 A8 88 F3 27 63 3D 00 E8 F8 D9 9E 6C 6F
 B9 44 DD F1 87 58 7E DA 2C F5 34 D6 76 5B 9A 8B
 7D EF 3E 0C 41 87 FE 50 39 E9 42 39 C4 2D 5B 53
 96 43 93 DF 4B D2 A9 59 FC 14 69 08 6D B3 67 2C
 9E AC BD 55 8E 02 48 5C 56 69 03 AE A5 59 E7 59
 1E DA 4D 9C EC C4 54 F6 C7 41 62 8A 70 91 A6 54
 C6 31 64 16 48 23 F7 32 10 7C 24 C9 65 66 CA A7
 C6 93 F0 D2 7C C5 5A 87 13 C1 FA 77 15 EC 8B 26
 22 0E 87 1B 54 E7 3A 52 5C 89 82 B2 D2 D1 4D 9C
 FE B3 9D 3C C2 F9 DB 9D 0E 5A 96 91 31 00 75 DD
 A2 18 73 15 C9 1A 85 0B D6 9B 80 D3 71 FE 86 4D
 96 8C 77 4F 0D 6C 98 F3 B1 4B B5 12 10 D9 78 DB
 11 01 F6 9C D4 A2 B9 72 38 B1 AC D0 84 96 DC 76
 E8 EE E3 01 FA 45 C9 3C 1C 30 F5 6F E1 FD FC 24
 DF C6 B8 C4 41 CE AB B4 13 56 A8 B4 9B DC BE 38
 6F C8 B7 F5 82 F6 D4 42 81 4E 30 6C 18 A4 09 B5
 64 28 16 1D 75 D5 1E F2 C7 F1 F5 58 DF DB 97 AC
 65 6A F0 8A 62 94 00 59 27 13 89 19 20 8B 29 87
 AD EC EC CC 9E 88 4C D6 B9 9F D0 DF 7C CE F9 8C
 05 E9 41 20 F7 F2 94 EA C4 11 EA BD 6E C4 6D 2C
 E4 25 6C 9B 94 EB E7 57 1E BC 29 32 84 80 3B 86
 78 F9 69 00 9D 67 80 41 8C 74 90 F7 79 61 52 44
 EB 7C D8 1E A3 08 83 6D FA 34 75 15 4D 07 8C 70
 85 A5 94 39 6D 27 A7 F7 56 C2 4B 9F 0C C7 6F 4B
 10 AF 97 68 4A 99 67 A2 3D BC D9 BF 81 38 FD BE
 DE E0 44 3D 66 40 23 FE B3 28 C9 00 D8 0B 9A 42
 6F 4F 4B 19 C0 73 E7 F4 A6 4C C6 E6 D5 69 15 89
 60 BD B5 E0 C9 B2 18 4C D5 86 64 79 FA 6B F5 98
 C7 3F 02 E6 0C 9E 3E 4E 4E 65 41 95 0A 5B B3 3C
 A6 E4 F7 96 B0 97 EF 23 C0 61 E4 6E B4 DF D7 BB
 C1 56 12 D1 08 1B 71 E6 9E F8 B8 88 F1 B3 7B 5A
 CE 58 DC A8 64 C0 3E B1 A8 A4 EA FB 66 8C 13 9A
 43 A9 2B 77 CC 8E 87 BB 4A 44 B4 BB 74 8A 60 49
 94 32 4D C5 17 CB A1 04 5B 5A 38 9D 94 E0 AF FF
 1F A3 28 7E BB 1D 49 76 D7 E3 C1 2F 3F 24 5E E8
 3E CE 11 DA ED 75 6C 67 D1 62 59 61 4C 82 41 3C
 19 EA A2 B3 F4 1B 0F D5 4B 3C 01 8F BC EA 6A B8
 6E A4 FB 91 9F 94 1B 4D 09 D9 FE 03 01 06 52 1F
 CB 60 D8 F5 C4 91 6E C7 5A D6 53 85 19 93 DC 91
 98 D1 AF 86 0B 39 47 DE 7C 6C F2 12 01 5F 09 D3
 91 77 47 25 9A BB 42 53 54 7B 7C 53 97 CA 74 2F
 20 09 68 CC 79 92 E3 AE 39 BC 8D 6D 97 3B 7A B7
 65 5A 38 F5 B7 E0 0E 98 D6 30 62 BF 1C 4E DC 7D
 CA F4 39 53 F1 53 4A D5 59 DB DC 60 C7 8E B1 84
 A9 2F 19 24 AE 23 50 5B 49 0D 29 0C 6D E6 6A 67
 93 ED E0 89 C5 DE BD B0 9A 31 29 82 EC 6B C1 62
 57 95 5B 47 6F 75 1D 1E 07 49 C1 49 CD CE FE BC
 2E 14 19 5D F5 DB E9 A6 47 AD C3 3A 47 BF 79 F4
 7C AB B9 C7 5F 18 6B F2 79 90 A6 9E C0 85 AE 6C
 1F 2A F8 C2 C9 F5 A8 79 B2 9C FE C3 78 AB A2 2D
 63 F0 44 46 8A 4F E2 69 B9 9F 06 FC 05 2C 46 34
 99 7F E6 22 79 54 CC 1C 3D 86 21 4D 6F EA 7E 2B
 62 4C C4 53 24 DC 8B 51 EA 15 7C 00 FB 1B 1C 5B
 C1 79 39 D4 BF 48 46 52 C8 4A B6 F3 3F 6E 87 5C
 05 F7 6F 45 AA AB A7 F2 94 6A EE 2E 6A CF E7 4E
 7E 63 C2 C8 0E 8D 03 56 0C 50 61 4A 6C 9C E8 68
 82 72 F0 34 97 47 ED 2A 90 5F BA 5A C2 42 4F 48
 70 D9 45 2F 63 F5 22 31 9F 5B B7 44 F8 E3 F9 2F
 6E C9 B3 FC F2 3D 6D D2 3D 71 90 2C 0D D4 D1 AB
 BF 4C D7 3D 9F 03 E2 E6 D6 12 19 C2 7B 3F 59 F2
 1C F1 2A A1 21 5B D8 79 EA D2 9D 1D 9D 66 B1 5F
 09 38 87 01 CB 26 02 68 52 23 21 A4 2A 9C 2C F0
 5F 17 E8 B3 A2 53 DB 78 DD FB 2F 76 14 05 C8 67
 D2 4E 44 97 D4 5E 7F A0 01 D4 AD DF C3 09 3F 3E
 25 9D 46 A3 4A 9D D8 FD 4D 34 B0 64 B0 E5 2D CE
 F7 60 6C 2F 97 A6 12 DF 50 BC BB 72 9E F2 06 46
 21 62 FF 5B 6C 9B 3F 2A 15 D6 96 56 EB 5A 86 4F
 03 4B E3 8F BD 89 4B 36 22 9E 6D 08 11 1C F0 95
 AB 8E D4 0A D3 DB A9 5F FD FE 5F 11 26 69 48 CD
 60 52 39 1B 80 60 75 CC DC 57 C9 5E A5 88 03 2D
 38 1D 05 4A 64 D8 77 4B 22 10 F6 5D C0 8A FB 71
 E7 2B 96 08 1D 9D C5 48 D0 E2 D9 8A C9 35 60 47
 F2 D5 A4 56 FD 94 1B 2F 2F 50 FB 7A 83 A7 76 73
 0C 68 DA 47 C9 BD 2D E8 15 D1 B2 EB 0D 41 17 F0
 D2 FE 51 0B 3E 46 DD FE AF E0 AF D3 21 D7 38 64
 BB E4 B7 1E BF 0C 9A AE 8A 6B 33 BA 16 5B EF 28
 8C 40 76 8B B1 39 91 BA 16 D3 90 6B E9 4F 01 25
 CC DC 6D DE 37 03 19 80 FA A9 CD 33 A2 1E B2 42
 2E AC A9 B9 C5 1D AD 5F A1 1F 85 D0 9E FC 7F 99
 83 45 33 F9 01 8A 9A 1E C1 0B 0E 45 DB 4A 6A 76
 F0 08 84 6F DC 82 34 27 14 48 01 0C 4A 04 56 73
 0B D0 0D CC ED 9F AF FF DB 48 E7 F9 E5 43 46 86
 F0 9F 5D AF F7 CD 27 59 DB 64 01 7A F5 AB 4B C1
 05 20 39 1B FA AB EC 12 B8 EA 51 4B 31 0D 28 8A
 96 06 25 3C D1 B8 F6 BC C1 99 2E ED 44 28 BC 9C
 1E 16 11 16 4F 18 0D F8 A2 DA 3F D2 3B 3B DF 6F
 29 B8 88 7E 7A 6E 82 81 FF 39 B8 33 CE C5 F8 A2
 6D C1 9A A7 5D 99 7E BF D6 90 60 2C 5C 7C 1D 66
 85 F9 6C 30 9C 5F 11 66 80 85 B4 68 D4 FA 91 0A
 6D D4 33 29 0B 37 FD 2F 2C 28 C7 E7 E6 D7 27 86
 35 7C 87 D4 B3 90 F6 97 17 67 25 6D 4C 94 53 D6
 A4 A2 AC 92 96 08 B3 67 74 76 87 BA 35 A4 80 60
 B7 B4 60 A7 D8 16 CC 0F C9 6C D2 45 F3 1B 74 B6
 F1 E6 35 9E C5 30 51 43 BA 1F 58 65 8A FA 1E 9D
 21 F1 1A D8 87 2E 31 54 F7 2F 19 C8 53 0B FC 88
 6F F7 A8 D5 AB 28 8D 32 66 46 5D C3 F8 09 DC 71
 AC EE 40 29 5E E8 DD 21 63 44 B9 DE 01 20 11 2D
 7B 80 67 6E E6 59 96 0F 59 21 EB 0E F2 54 82 61
 9A 23 55 BC 60 97 C1 F1 A4 25 66 41 1C 9F 9B 66
 1D 18 27 82 29 4C 53 BA 77 9C 11 9B 05 7D 2A F1
 9F 0E 11 C0 00 F0 D3 F3 9D 1F 17 4D 22 85 A6 D5
 E2 0A C8 8D 34 04 13 3D 8E B2 EE 95 F4 A3 B0 8D
 49 EE 9B 98 9C 87 85 ED F8 26 6E 84 F5 9E 7C 1A
 2B FC 4A DE E3 F4 B0 B6 18 48 7B EC B2 EA 6D B4
 E3 DC 5D 7B F5 45 74 E7 19 48 F8 97 6B 09 F4 FA
 80 91 38 D1 03 32 5F A2 D6 3C 16 BA AE DB B4 71
 95 4A 1C 5A 52 02 CD 66 44 73 0C 74 08 C1 D2 5C
 96 D3 23 A0 6A 83 B8 9C 33 15 8A BD 2B B2 0D 88
 E6 D5 2E 48 D6 49 AE C3 A2 EE E4 C9 91 20 56 51
 59 CC AE 02 E7 F8 6B 57 21 F8 A6 2A FC 3D EA E4
 16 72 06 EE 1A 4A B1 C9 7C 8F 39 AC 75 66 AE 50
 B0 67 EA 3D 29 BA D7 A8 B4 0C 55 E8 D9 D7 B9 C7
 61 DF 49 A5 14 8A B1 C8 69 CB B5 90 75 8E 49 84
 01 11 FB 70 8B C7 BF A8 94 37 E0 AE EC 89 2C F7
 38 29 CB 2F 4C B1 BE 7A 32 0C 25 EA D9 B5 07 A8
 55 93 02 59 F4 45 7E 5B 87 73 36 AD FD 79 3C CF
 85 C6 ED CB 09 73 44 39 04 40 84 1F A5 CD C5 78
 9A EF 4D B8 03 F8 78 FB 7B BA A0 B9 D6 2A 6C D9
 6E E3 53 6E 40 2A FA 84 58 F5 81 2B 72 C8 1C C2
 10 59 E9 03 97 58 30 85 81 73 C5 E8 E5 3D F2 6C
 12 0E 5C 4D 7D 39 E5 3C BA F6 98 EF D9 CE 9E 5D
 B2 7E 84 86 25 BA 06 DE E7 B3 E2 BF 16 EE E3 16
 EA 22 52 E4 28 22 E8 38 6B 5B B5 E4 5A 34 6F C0
 D3 5D DF 9A 65 4B 2A 25 AC 1B 3D D4 F2 89 C0 B1
 CA 6D 84 D9 F6 C2 3A F1 8D BA 20 D7 B9 A3 29 A5
 37 EB 1A 4D 57 4C 2E 16 3E 6D 52 95 DE 6C EC 97
 1D BB 68 F7 EF F5 91 8D ED 50 FB A0 C2 31 A6 CA
 E8 7F 7E 3B 5A 5B 54 E9 8E 8F 7B B8 2F D3 98 21
 E1 B5 8D 13 8E F8 C0 E5 EA CC C9 34 55 FE BB 3E
 06 53 A2 A4 4D 30 EE 7D 9B 33 EA E0 E6 0D 8E 67
 CD 7B BC F7 73 2F DF 91 60 12 54 35 18 8C 19 16
 1E 2C F6 7D 1F 9F 4E 1D 0F C6 7C 08 82 D1 39 C3
 7C 73 49 8D FA E2 3C AE 9D 78 81 F9 80 F1 6A A8
 E5 5D F9 99 60 78 5B A5 55 E6 B8 FC C5 50 58 A8
 7B FE D2 15 02 CD 2E AB B6 B5 07 C8 05 40 7D 5A
 84 84 95 20 A9 AF D3 20 8D C9 88 00 C0 FE 7C F4
 7B B9 5B 63 91 C5 FD 18 D5 82 86 94 38 0A CF 4D
 65 7C 49 35 2B 6B BA 0A D7 61 3B EC 25 05 8C 62
 83 81 48 45 D4 D8 50 5B 66 FB CF AC 4C 1A 28 89
 1E 5E 09 71 02 14 57 87 D7 C7 E0 2E 1A 70 55 D0
 CB D9 8E 4D 5E CA 4F 41 45 8D D7 AD 75 35 60 63
 5D F9 65 F0 DF 1C EC 6E 8B 82 5B 26 A0 D9 7A FA
 15 05 66 E4 61 D8 60 C1 1B 35 0A 92 31 48 51 61
 74 1C 46 11 56 92 39 90 52 3C BF 62 BD 21 3F CC
 36 44 F3 73 2E 91 32 70 E2 2C 0C 80 8B 9C E4 66
 49 96 B2 81 50 EF BB CF A3 A8 1A 58 8C DA A2 C5
 5A CA 89 D3 C5 10 8A 9D D5 95 4D 79 64 45 E4 F6
 EA 07 5F AF 2F 3F F0 0B 20 94 20 05 C0 66 A0 BE
 A8 25 DB BD DD 01 EA C5 84 09 F5 9D 63 98 1D 88
 04 73 84 83 F9 BC E6 6F FC F7 D0 27 59 64 A4 45
 49 7A 25 25 0E 4F 5E D8 4E 68 94 64 A3 6D F7 13
 B1 AB B5 96 FE A8 DD 02 EE C6 5A 8A EC FF 00 1C
 C1 42 3B AC 23 3C 90 23 A7 1E DA 91 CC 12 BB FE
 D3 AE 4A DD 68 44 45 D9 E1 83 0D 22 36 88 BE 96
 E2 F2 63 3F EC 64 F5 87 4D A6 12 B7 2E 0E 85 9D
 32 AE 49 AD 86 5C D4 0F A8 E4 B5 69 FE E5 22 5F
 72 9F 25 72 8B 84 10 FB BA 25 1B 08 5B 3A 7E E0
 75 99 66 46 BF AA AB D0 14 F6 50 18 DA 1D 0B 16
 72 56 B2 6A 43 EB 68 68 37 B7 26 D8 A9 22 7E 80
 B5 7B 3A 0C EB 99 31 B9 86 DF 59 B8 01 1B 0A EE
 FB CD 05 94 3B 64 FF 48 71 C5 FD C5 73 FD 22 5D
 62 47 EB 27 B2 1B DD 1B 25 0A 74 2C 48 FE 9C 24
 F8 78 38 C1 45 48 1F DE 5C 98 74 BF 55 DC 95 2E
 E9 17 B1 AB E1 CC 9A 00 5A A0 3D BC 23 05 C8 36
 4D C9 60 AC DF 8F A9 7E EB 58 A1 A5 E8 B5 ED 7F
 DE D6 62 0B EA 39 C8 8C F7 5A 9D 6B C8 05 D7 31
 E0 01 97 D3 DB 4E D9 73 EA 88 C4 62 BE 0C C5 0C
 2A 4D 4E AE 9C 82 90 54 C0 B2 95 30 15 99 82 5D
 9C 8E 1B C8 24 A2 B8 9B 31 FA 97 11 3D DA F7 53
 C3 EC 6C F3 E9 DE 9A C8 49 40 BE 2C 77 CA 91 41
 77 40 69 9A 2B 32 F5 DC 25 B9 96 1B 2F 6E 37 3B
 47 9B 76 3B 34 F7 2A 44 09 C3 F0 64 81 59 E7 88
 AB D5 9A 5B ED 64 06 EC 8C 1C FE 2D 50 1C 6E F8
 B3 5D 70 8D C9 1C DB C8 0C A3 5B EA 43 88 EF 61
 E5 A7 36 B9 9F 6E CE B2 DF 38 31 5A 06 41 BB 5B
 AE CE B6 33 49 72 20 E7 B5 DD 35 1C C4 05 4C AB
 28 3C BF 49 1D 44 CB 2A 10 0D A7 3D E5 62 88 76
 56 A8 F4 7B 68 7E C4 C6 64 E3 28 EE EE 78 90 B7
 8E E4 88 59 75 D6 A3 20 0C 63 5C 5B B3 8F 48 B2
 D8 F6 6C 49 11 6E AD 81 20 FB 72 E5 9F AC BA E6
 9F 56 35 23 69 90 B5 FE 58 3A 06 19 8A 39 06 D5
 68 F3 92 8E 57 2A 25 56 9B 45 17 6B 54 1C 6E FB
 C7 B5 E4 7D 93 27 9F 21 3A 18 42 87 9A CE 94 6B
 5B 82 65 DA 65 76 07 8A 58 8C 7E F8 5C 7A 9C 7E
 7B FB 11 4D 52 8F FB A2 EA 2A 09 6E A4 F7 E6 73
 42 6B 83 16 8C E7 6D 0E C1 4A 5C BB 61 B2 A9 BE
 DF 03 87 30 3C 7C 5A B1 EA F0 FB A2 18 74 C0 77
 78 92 2C 38 57 1B 34 46 43 AF 4A 84 E4 57 1E 29
 28 34 C8 84 27 9E 97 78 2B 74 C6 43 C3 0F 16 E3
 87 AA 3A 4F D6 CD AD D4 13 10 63 22 8D CF 01 81
 E8 F3 99 9B D2 E4 C7 C5 1F FA 5F 71 AB D1 1D 19
 AD EC 2F A0 24 8E F3 D0 94 D9 65 6D AD CB 2E 17
 18 A3 59 47 41 54 A8 1B 6D 68 A0 1A A5 DD A2 3B
 D7 7E 16 80 F4 E2 77 80 FD 70 9D 0E 66 07 EC C3
 34 0E C8 EC A4 DD 4F 2F FD 42 FD EC D1 E3 D8 75
 85 CF 60 55 5B C6 16 F4 0B B8 D8 77 F4 06 87 C6
 58 CE EC 21 74 38 ED CC 09 02 EB D5 CD D9 35 9C
 86 02 E2 7E 67 E7 9F 20 14 5F 95 6D 39 D9 0A 2C
 F8 7E F1 C1 38 C3 78 79 74 7A 2C 1D 39 1B 58 BB
 3B C8 67 0F 26 E1 22 33 C6 CC 42 D5 9A 96 2D CD
 2F E8 E7 EC 0C 73 64 5D 5B 62 10 84 F2 CC 52 6C
 A2 AB E2 14 71 10 34 BE 4D 68 B8 5D E0 DF 2A 5C
 56 93 30 FB B9 15 26 89 B7 50 86 99 76 EA 00 DE
 B8 DE 0B CF E8 01 E3 E0 37 D2 0F 2C 9F 39 49 A5
 C7 B5 BE 01 4F 10 90 CB 52 74 5F 38 52 3E 54 8E
 DA 4B 00 D0 4C 6A D7 C8 FE 4F F6 37 1A F0 50 23
 30 09 CF AA CB 95 11 C3 BD 60 B0 4D 5C 14 6B 1C
 19 D8 18 7C 0E 8C 3B 11 3C CC A3 8D 07 C3 F4 61
 28 D6 71 F7 B8 28 48 D3 80 9E 75 F4 3C 5A 5A 2F
 D8 7B 47 B9 C4 5F F9 25 AA 36 76 21 44 B6 04 5B
 80 27 DE 1B 81 C4 D4 55 66 15 86 C2 86 6E FF 71
 D8 87 9D E9 4D 41 BC 97 5E A7 B1 04 01 2B 98 8B
 AE 2D 14 A3 9F 12 50 4A 71 C8 FD 72 98 BD 22 06
 A3 26 F4 CF 26 2E 7C FE C7 6A 9A 2B 73 3A 89 DD
 BF 11 66 04 FC EF 83 CA 40 5D 98 E1 B6 2B F5 56
 4F D7 57 80 E0 88 87 28 AB 4C 79 F8 72 26 CB F2
 87 C6 A7 95 5F 63 B1 9C B7 C6 72 81 6F 24 0A 5A
 3D 66 9A B7 A2 BC 31 9E D9 70 9A 6E 95 F8 C8 D8
 F5 5B CD D1 D2 43 2C AC 8E AC D1 7C 84 66 04 EF
 91 2E 6D 2A AD 2A 9C 77 36 63 6F 96 00 5D 94 D1
 34 FB 2B D9 35 B9 A8 34 CF 33 84 0A 51 33 5F 88
 7F 0E 0D 77 78 0D 82 60 78 87 3C EA 72 93 7C 1E
 B1 3A 2F 98 A1 25 62 52 3C 10 88 4A C8 7C 28 30
 00 0A 04 BB EA 80 4C 5F A6 EC 8A 4A FF A2 40 9B
 64 DE 55 B1 3A 66 09 9B F6 9E 9C 4A A2 6E 56 5D
 7F 54 7E 2C 68 9E 96 20 40 44 27 A1 89 F6 BF FB
 CE 0A 4A 6C 92 E2 CA 06 43 0C BD FC B7 BB 74 F8
 30 F8 C4 45 4D 29 3A 1E 93 DE 4D FA A8 5A 16 4E
 EA E2 F8 99 F0 ED 31 CD 64 17 A4 9F 1C 88 96 BA
 42 19 66 63 B8 D8 9D 22 5A E6 10 B1 FC AE FE 66
 CC D4 4C 5B 54 5E 30 A5 58 9C 24 1C 2A 6D 6C 73
 BA 2D 7C 88 A6 4E F8 F8 E1 3E 34 57 EA 13 E0 31
 03 E5 22 61 7D 21 AE 27 FC FA 6B B8 60 DB 9F A9
 F2 B9 CF F4 0C 74 66 F7 20 2F EF FA 79 BC 14 1B
 5E 61 EC BA B2 D9 CC 7B 21 BF 35 CB 9C FA 39 D6
 63 A6 E9 AF F6 F3 C5 A0 36 CA 99 20 BE 3F FF 3E
 F9 23 5D AC 3D 35 BA 15 02 04 EB C4 B6 1C BD 51
 5F 0A 06 F8 9F C8 FF 83 16 82 2E 0A 36 2C B0 17
 94 DA 65 91 45 28 32 A8 78 E5 21 70 86 F3 1B 63
 75 2D 99 8A 80 2A AC FB E1 15 70 04 11 4C 04 82
 4F E5 51 F8 10 7F 32 DD C9 37 EA 3F E3 6A 26 7D
 55 D9 86 D0 FC 2C 86 D5 9A 94 9D 3B 09 4C DA 72
 C6 85 89 72 5A 2B 61 F3 27 7F 1A AF CD 46 D7 8A
 0C E5 19 9A BD D7 C6 52 D8 EE 61 43 09 6D A2 51
 5E 10 28 E8 BB BF A9 BC BE 1F 1A A3 39 A4 7A B2
 2C DE 64 86 F1 EB 24 C5 FA 58 00 7D EC 21 BB 13
 6C A6 00 75 4F 8B 31 11 38 D4 17 6A 2F 72 E8 E1
 18 FB 1E 38 22 D6 FC FA 0E 69 60 01 CC DE 2E 9E
 59 41 EF E8 5D 91 0E D8 38 EA B1 F1 69 7F 76 96
 B1 C5 9A BA EE 6A EE 0F 8D 01 03 FA CD D7 E9 EA
 29 A4 B5 5F D8 A4 F3 E1 DA 2D 5E F0 74 46 12 CA
 FD 5F A5 57 27 64 C8 EE 96 04 BA 49 E6 51 54 95
 C3 41 1B B4 B5 A3 86 54 99 36 D5 9D 59 5A BE 68
 79 A1 A5 80 54 19 F0 0C 5D C0 43 EC 0F 41 DB A3
 1B F7 70 55 77 AD C8 A4 6A 3C 82 7A D8 58 D3 E8
 D7 05 C8 10 15 81 59 31 34 53 28 44 94 43 91 EB
 23 CF 62 09 C8 A7 2E 56 0D 3F F2 9F 24 DB 3C 4D
 51 DA FF 1D D6 70 A0 64 05 52 95 17 22 91 B6 54
 44 A4 8D 96 0C C4 FE 99 05 2E 5F A5 FC B6 29 81
 18 A0 C1 04 F8 33 77 DF D1 91 58 32 C1 E2 98 8C
 BA BC F5 53 C1 35 26 24 81 7D A6 48 BE 71 3F 38
 63 E2 B1 58 8B 35 B7 2F E4 A9 C0 31 D1 F9 5E CA
 07 64 E3 6F 3F 93 F0 78 99 85 A1 C0 D8 60 BB B1
 37 61 61 AB 4F FF CF A0 E2 6D 50 7B 53 E0 1F A3
 10 5C 68 BA B5 13 0B D2 A3 0B 1C FD 5A 74 3C 84
 E0 09 A7 FE 99 B4 FC CE 6E DA BB E0 6F 59 16 9D
 60 25 42 62 C6 30 4A A4 3C 1E 6C 9F 21 EA 30 9C
 A3 A7 7F 64 76 8A 13 73 25 34 9C 37 ED EB B1 7C
 33 1A 1D 59 F9 8A 27 5C 04 D4 B3 41 53 E1 22 71
 CF C5 86 1D 74 1B 83 C3 7B 8B F9 F8 11 52 45 6A
 19 7A 84 84 C7 0D 34 F4 3F EE 5E B1 A0 12 C3 E0
 06 EB CE 4C FE 28 F1 B0 9D 1F 0F FF 43 80 F9 DB
 48 EF 45 B6 78 1F 18 5A 08 41 78 AC B9 0A DD 88
 CE 72 65 F8 1D 28 E8 15 D7 89 51 48 81 EE 63 FA
 5B 96 E6 F7 F3 B1 B2 BD 57 1D C7 FD 6E 50 7B 00
 D2 46 2F CF D3 8E 7C B2 83 21 4E 15 FA 45 60 E4
 D1 E0 58 8A 16 51 13 E6 56 13 85 46 EF FF 5C 36
 81 80 C6 69 56 E1 F6 9B D5 04 B2 7F CE CB C1 03
 44 8D 07 4A 11 2A 99 6B D4 6D 4A E1 58 4C 56 69
 9C B7 B4 3E A3 E8 C5 6C D0 09 60 FC 97 60 11 9D
 28 0F 9B BF 3B E3 4A 1A BE 4C 1B A3 70 16 D1 AB
 BA E1 F5 2A A9 34 44 43 E5 9B BD 84 BE 9E 07 B6
 0C 33 BC 8E CB E0 AC F3 E8 B4 98 B7 CF B8 A0 1A
 B2 C3 79 20 E4 20 C0 15 DD F4 AA 9A A6 DB 29 2A
 81 D5 D5 AE F5 14 A1 CE 5A 9F 52 38 3A 18 0F EA
 4E B9 6C 52 46 4F F4 19 D5 D2 B2 6E 08 5B 31 9C
 43 6D B4 45 7E CD E6 F6 6F F3 FD 50 3E E4 91 EC
 DF 9A A4 7A E4 11 35 21 E0 C5 85 63 60 84 C7 7E
 81 1F 32 31 72 55 C2 2F 56 88 10 06 28 36 0A 0D
 63 FE 6E 96 BC 5B 58 EB 72 69 0F 0A FA DC AC C1
 D9 96 CB 6A 5C 93 85 F3 7D B4 ED 1D 0C A0 AB 29
 E1 D5 1F D0 28 3E 84 FF 04 F4 DE 1D 7C 3E 87 62
 D1 3F D2 73 A1 59 83 17 65 2E A8 37 12 6D 14 2F
 32 16 FF A8 2E 21 B0 78 BD 00 24 5D FE DF DC BD
 54 F1 1C 33 AE BB E1 4F 4E 1B 7F 01 B2 80 DA 0F
 B4 95 12 81 D2 2B 6F 38 D9 B5 7C 63 C7 28 BF E6
 F7 FC 43 60 DE 53 58 51 99 32 B2 31 73 E9 9A 61
 20 9E 0F BE BE 89 F6 31 15 26 AF 6D BA B5 51 CA
 7D B2 B1 87 7B B5 01 BE 9C C9 73 5A AA 15 44 66
 80 25 DF B0 42 D5 35 E3 BE 9D CA 44 6D 7F 5E 49
 62 AE 40 A3 38 A8 1B 67 F6 87 28 29 24 6B A4 3D
 D9 70 8F 0E EB 50 33 BC B3 85 6E 4D BF 51 4D 11
 C2 CB C3 3D 45 97 4C 8E D3 9E AC 43 DC ED A5 56
 19 0A 94 C9 F7 04 88 83 2A 83 2C 6C BD 94 55 5F
 D4 A7 B1 ED D4 C1 FF CF 46 F7 38 81 58 B6 D6 FB
 10 85 5A C2 C1 28 86 F6
* End 4179962338 1243945137