* LTspice Encrypted File
* 
* This encrypted file has been supplied by a 3rd
* party vendor that does not wish to publicize
* the technology used to implement this library.
* 
* Permission is granted to use this file for
* simulations but not to reverse engineer its
* contents.
* 
* Begin:
 1C A6 5C 85 82 CD 1B 74 14 84 FC C4 42 46 EC D6
 9E DA 6E C4 2F 8B 15 CE 49 EC 00 5B 5E 76 D4 34
 C8 9B 2A 3B AD 71 4D B4 29 46 A5 2B 47 C3 DD 13
 D7 CD C9 94 52 1F A4 55 ED 5E 51 06 A2 C7 F8 64
 30 71 75 C1 4E A5 3D F7 BB 08 DB 66 61 37 D0 CB
 16 E2 1D 59 5E BA 1D 52 37 E2 C8 DA BF 84 8C 06
 5E 5D DD DC 5A 07 D2 81 BD 73 77 F1 F4 E4 23 84
 27 E5 62 AC 8F 6E F2 A0 D2 30 A2 B2 04 0F A2 61
 39 6E C9 54 88 61 C9 40 46 47 F5 63 A3 84 38 43
 D0 53 1C 6D 71 D2 98 76 D9 7E D7 5E 77 D1 4E 35
 AF 98 8F 07 B0 AB 71 95 8F DA 76 65 9E 02 D3 53
 89 E9 93 2D 0F B0 AF 22 24 AF ED D0 23 85 46 E1
 B1 F7 A9 BA 33 BA F6 F3 93 33 04 BE F8 35 6E 52
 72 EB 38 71 17 D5 DA D4 1B 3C 96 3F 9F D9 6D 95
 1E 8A 41 61 FC 87 7D F5 1A 94 2E 8E 8D 9C 06 5F
 A4 AF E0 1B 9A F2 FF 6C 86 8F 91 5B CF AF 55 A5
 B8 61 D1 F7 BE DB 3E 71 4D D4 FB 9B 05 AC 24 F3
 57 C7 05 B5 C1 A3 AD A7 F5 D8 54 A6 AE B3 62 BB
 29 EE 2D 19 71 30 E7 A6 9A 8F C5 E3 2A 2D 56 A9
 53 9A 99 45 B4 12 E3 34 71 F7 6B D5 6A CE 5D 99
 4F E9 EB 6E E0 21 93 68 28 F8 46 32 CF 76 B4 6C
 34 5A FA E9 0D DE C1 ED BE 68 B7 79 C6 F6 F2 05
 D7 1C C6 C4 61 66 C6 43 CF 6C F6 6E F6 1A 5A 78
 DD 43 77 70 05 75 33 0B CF D5 C5 15 C8 B1 76 35
 72 D8 07 8D 47 8F 16 2F F8 67 66 C7 EC 62 6F 71
 B3 8F 0A 56 AD 7E EB D0 C9 D5 CF 4F 15 65 B1 69
 64 07 CE 7E 92 98 0E EB 14 31 39 AC C8 45 BD 9D
 7F 06 1F 3B 70 C3 C9 E5 12 47 37 F4 46 B7 8C 71
 CB 42 F1 B9 62 1D 77 80 01 6A 5D 27 87 39 36 3C
 FC 7C 98 A0 77 36 48 63 4F CE E4 E8 5C A1 AE 6D
 58 29 4A 30 E8 DC 4B 21 61 1D B2 06 DA D9 0A 66
 E0 57 BB 12 C1 29 79 D5 D9 5B 12 E1 74 41 DB 50
 F6 51 7C 0F EA DE 94 0B 6A 61 CD 90 02 F7 E6 F0
 43 6F EA A8 99 88 20 52 97 EA B0 E1 84 02 25 E5
 B4 3A 17 6B 12 D8 37 60 3D D9 5F B8 8A 2F 7C 77
 D4 72 D1 48 98 80 83 C3 69 55 95 5C 7E 93 15 18
 31 D9 28 37 E7 6C 94 1B B4 C4 00 D1 49 1F 4F E8
 01 F7 26 24 AB C7 02 CF 78 79 B8 5B DA D7 2F 3A
 2F 4B 58 1D C9 23 15 07 C3 94 11 69 80 F8 6E 88
 A6 0C E1 44 A5 55 84 F4 8D F0 26 93 D6 C0 29 90
 42 F5 79 95 FD 9B 98 B2 7D 9B 36 8B 84 11 58 D3
 19 BF C9 46 56 B2 6A 56 12 CB B0 5B B7 75 0F B9
 3F AA 55 29 CB 10 7A AB 02 E8 F2 03 99 07 17 03
 82 01 B1 35 38 F3 31 98 25 65 17 27 BB D5 41 D8
 87 E5 6B F2 92 39 F7 C7 45 B4 CC AF FA 21 B0 94
 9B 2E 6B 7A CF 7D F6 F2 13 3D 9D 3F 81 EA B2 4E
 7E E5 F8 0F D8 6B 6A B8 5D 54 8B B7 6A 51 93 4E
 58 33 81 E2 F9 62 B3 15 D5 39 E9 16 40 2B 16 9C
 C4 0B F5 7C E3 99 65 B3 A6 7B D1 49 20 09 EB 31
 8B C2 F4 A5 32 CD 52 9D 1A 02 57 D7 F5 22 56 58
 B3 8F 4C A3 45 79 48 0F 6C EC 3A C8 DA BF 97 8A
 55 08 89 86 C0 99 DE 96 8A 21 10 E8 65 FE 76 06
 A2 D2 46 68 CD F4 D8 73 45 52 C3 B3 5F 99 33 3A
 0F 45 74 04 84 DB 7A 2F C3 79 DA FE 9A 3F 47 4D
 1E F2 82 4D DB 63 85 5A EA 96 46 B4 C5 8F 2A 0D
 C1 5E 34 7C 2A 25 24 FA 49 E9 5E B3 09 41 8C F8
 47 0F F9 28 1B 2E 44 3E 43 4A EC EC 1E 1D EA 44
 BD 49 F0 CC 8D E8 5F 8A AA 60 08 DA 87 C7 A6 D0
 89 A4 DE F7 D6 84 F9 65 28 36 E7 91 6F 5A 13 3E
 FC 7C 61 75 28 10 2A 5E 56 B3 73 13 58 F8 31 FA
 56 88 9F 27 9A 54 5C 5F 0E 58 EC 72 98 FB 66 F5
 42 C6 3C E0 F3 F8 A3 6D 46 6D 02 DD 13 C6 79 EA
 82 F8 BE B7 1B 13 8F 50 FA 61 CB 2D 82 37 6E 21
 4A 69 E9 3C 6C C8 D2 9F 96 B9 D3 EB 48 DF 85 87
 45 7E 18 40 C8 B0 93 3A DF D1 CB 86 05 2F 79 F7
 0A A6 E9 8E E0 5E 18 37 28 7F BF 06 78 3C 45 16
 A8 98 32 A5 D5 13 B9 84 10 D0 2A 6A CE E5 B1 DB
 77 7D 09 C0 0A 1E 3E AA 0E 1C DD 04 2D 30 19 C2
 03 EB 91 6E D1 82 10 76 8B 32 08 E9 CA 4B 17 43
 66 6B 93 41 EC 08 EE FA FA 73 70 53 0A D9 35 F2
 D4 57 00 68 38 94 E6 38 64 02 02 E9 F0 21 39 6C
 D4 19 51 AB 81 6F 76 44 3E 07 DA 22 86 FD 00 2B
 C9 DC 76 74 D0 4A FF B1 2C 81 01 67 69 18 BF 80
 17 4D EE E8 F3 30 C3 93 3B 7C 5E AC 76 26 0E D3
 0A 08 38 3F 69 EC E1 B6 33 7D 4B 86 21 F1 22 F1
 C4 65 F0 72 0C 4F 34 21 75 29 09 0F 1C 28 9E 35
 01 10 C9 90 10 8B 0F E6 D9 00 18 82 F7 E5 AA BD
 00 68 72 40 60 5C 04 D4 E8 CD B6 69 65 90 7F AB
 A3 CE 7B B6 85 20 33 56 AB D3 CF 56 38 36 73 92
 CF 8F 7C 7D 5A DF 19 6A 8D 27 6D CC 1F 76 01 C4
 CC 29 44 A9 0C 9B FD F5 C5 5E 93 19 A8 30 F0 C2
 E0 DB 33 AE FA 10 C0 D1 2B C7 47 C4 7F 32 5D DB
 11 D9 6B 2F CB A2 E6 25 EB 69 A3 6A 12 B0 CF 03
 05 77 D5 23 AB 7A DD 05 11 D9 D4 C3 B3 CB 04 B0
 92 B9 AE 15 57 33 48 EB C0 37 03 71 6F 06 DA E9
 FA 68 B9 41 DF 7B B6 62 53 38 8F 84 4B 43 65 67
 2E F0 26 63 78 D3 7A 69 63 7D E8 52 A8 54 3B 0C
 49 AB 9D C9 D0 55 5C B1 FD 6A BC 09 73 CD 78 92
 2F E2 23 0F 65 20 C1 2B C4 4F 6B 5E B8 0C CA 96
 F8 5D 87 28 D9 CE 7A EE 19 49 47 D9 56 80 13 BD
 F6 20 9C FB 3D 5D 51 6C F8 36 23 89 BD F8 AB 37
 2B C3 9F 22 65 60 BB FC 67 73 38 07 81 1E 50 84
 0B AD D8 EB 8D 0F 04 F3 2B A3 0E B4 70 34 E0 55
 91 F4 E9 1C 96 81 EC ED B9 2A 9B 1D 4C AE 50 01
 44 43 4E 05 BD 00 42 8D D9 22 DF D0 A1 E1 CA 95
 53 71 16 0A 3D E5 BD D2 A0 60 52 03 22 32 45 55
 05 DD D1 3A 3C 46 AE B2 4B 44 85 12 7A 93 2D 1F
 BA 77 82 AC 8B C9 79 BE D2 F7 C4 28 DA 67 95 02
 FB 56 F7 2D 9F 48 33 9C C7 F0 DF B3 09 1C FE 2E
 BF 1D 4C A0 A4 4F 7F 37 98 00 5D 98 71 2A F8 4B
 BF D6 D6 7D 2F 9E 36 A1 D7 02 FF 64 2A 5F 9F B0
 2E 9B F9 42 12 8A 26 41 12 CC 3F 09 73 6B 99 EC
 92 51 64 CE 8D BF 60 CB 44 BF 3F 1E FE F1 D7 22
 59 AD 58 32 3D 62 2D B5 71 EF 82 09 A5 5A B6 76
 B3 4C EB F7 B2 D7 F7 28 49 84 0E A9 9B 94 A5 F2
 3D C6 63 A3 E2 4E BA 5A 87 BB D7 47 69 3A B9 69
 B5 6A FD BD 13 E0 46 B2 D1 7D C1 62 15 CA 31 99
 E1 6E 5F 41 36 16 31 0F 3D 91 F2 C4 4E D3 51 85
 9F A7 4C 95 9C 1B FD 35 D9 20 C7 27 A4 2C 96 61
 E3 39 FD 19 40 7A 85 1F 05 E2 8A 59 ED E4 E7 26
 EA 6D 70 D1 07 45 C7 DE 9F 84 1F 18 61 19 FB C4
 E5 24 48 FE E1 E4 72 ED D1 54 50 D4 07 A8 D3 4E
 71 E4 1E DE E6 7B DE 59 73 A1 10 BB F2 F2 41 5B
 70 DE B1 A2 90 AC F0 86 81 58 26 96 D4 BF 0C 77
 D3 2D BE FE 27 4C FC AE 8F 12 74 84 0B 78 9B C0
 29 4A 7C DC 43 0E 5A 57 DA DC 79 91 0E F3 0E D4
 17 50 12 83 5A A3 48 64 2B DC 2C 48 06 2D EF B5
 DE C2 61 42 B2 5A F3 3C D2 BF 1C 5A 09 0D 23 EF
 D5 75 E2 64 D5 3B A1 8D F5 E7 75 60 BC D1 2F D6
 C5 F4 31 21 C1 53 39 F4 3C AC 1A AD E0 18 7E A9
 AE A1 42 4B B8 CC FB A3 E7 A1 49 8A 1E B5 70 8D
 66 93 07 A5 15 2B 0E A9 10 8E 49 7A F9 D6 BA 52
 85 B6 67 A6 D7 FD 19 35 21 E4 5A CF CD C5 0C AA
 4C 44 D3 60 72 67 E8 AD 0A 8B 44 4B C4 04 C7 C6
 1D 0F C6 43 B3 26 53 21 CE B7 FD BE A8 31 E3 7A
 4B BA F0 B5 B3 AC B4 5A 4B 86 D5 2D B4 6A 16 7D
 11 AB 7C 2D 51 5E 8A B9 F6 C0 C5 7E 03 6B 42 D0
 D6 B6 C8 0D 5B A0 09 E0 74 22 F8 13 97 2E 88 18
 81 F9 CC 4D 52 A2 02 80 17 7B 55 36 1B 2E 22 6D
 F0 45 07 9F 6F 8F 35 64 7F 10 A6 F1 91 01 85 BA
 B4 16 0A FA D6 DA 30 41 01 CB 86 8C E2 F0 9C EB
 60 09 AE CC 85 4D 58 75 2F 46 73 27 8D 74 ED C4
 FC AA E9 7B 36 54 D8 93 D7 82 D7 C6 2E 06 16 BE
 A1 7D 0B 6E CA 93 07 52 E8 30 6D 4C AD 9F 2C FB
 6B 4F B6 6E 6D 08 90 54 36 30 0A 0A 71 36 0D 9D
 E9 93 EE BD 3E 22 75 53 AC 02 D2 CA 9F 82 DF 82
 00 CB BA 33 EA 42 80 FD 1E 6A FF D0 89 42 8D 0D
 8B A4 6E 82 02 A4 79 D8 73 29 AC FB BD B3 E0 49
 51 5D 0D 6B C9 6E DC 89 DE 6F 2E AD 3E BA CE 79
 AB 76 C1 97 99 1C D8 DC 52 D6 48 E8 97 5D 6C D4
 CC F6 B4 C8 77 91 6F C3 3E 5A E0 4B BA 48 91 71
 69 0B DC 0A FC 67 ED 48 68 E0 EB 77 B2 2A 55 41
 8B 07 18 62 02 67 11 07 64 B6 08 D6 46 EF 6F A0
 9F 79 18 2A A7 E5 02 AD 2B 81 17 3A D3 44 78 1E
 B0 A8 5D 1D B3 30 04 9D EB 9D 39 A6 97 43 1A EC
 41 91 B3 E0 99 28 54 E0 12 10 88 F0 1D A7 74 AA
 68 F1 7F 79 26 F5 B3 1E 46 70 EC 37 0B 96 CE 38
 A0 EB 97 1E 18 FF 5E 76 82 30 A4 0D 42 B5 7F F6
 5C AB F3 51 1A A4 B2 E4 08 46 05 B7 60 4E 40 FA
 35 A7 72 48 BF 3C 7F 0F B2 C9 EA 05 56 84 E7 11
 B3 4B A1 9D 98 E5 BE E0 D3 FE 48 C4 92 6C 77 27
 5F E0 E6 4B 1A B7 DF DF BF 20 1F DC 60 E6 47 17
 4D 87 E5 34 D0 A2 C1 11 84 7B 44 FB B6 B2 DF 27
 D8 CF 00 61 8A 1A 55 15 C8 F6 C8 DB 52 95 17 BE
 A8 8D 8F 41 CC 01 EF 15 62 C1 6E 45 0D C2 0E 6B
 06 2C 21 83 2D 08 62 24 9D 66 BD 3E 0C A0 7C DA
 94 B1 BC 95 79 56 0C 68 50 02 2C 60 F3 E0 79 D4
 46 7D FA 3B C0 64 2F 4C 78 CC 16 5D 61 48 87 5D
 CF 3F 98 4A 01 94 72 6D D2 35 1D 57 7E 05 92 26
 7A 34 D2 94 3B 0F 83 93 F0 52 DA FE A7 0A 36 3D
 26 1D F7 8E EA F4 EB 13 3F EC CD 8C EB F7 50 0B
 AD 09 85 6D 5A 3C DD 18 52 F3 F4 31 55 9D D4 9D
 C1 04 19 2A 7D C8 A6 44 3A 7F 62 4F 04 67 F3 59
 34 AE A6 6A CC 6B BC B5 38 9C 91 AB 86 CA E1 D7
 E8 B9 E4 91 35 B5 0F F0 32 B9 26 5C FD 22 D9 C4
 62 D6 92 74 66 84 0B 88 F8 04 88 5B F4 AE A6 4B
 6E 6C 5B F8 FD E9 5D 84 FD 00 8D 8C CE 2A 01 47
 FC D7 1B CB C2 40 92 CC EF 34 BC 9A FB F9 8B 59
 59 21 2F 3C 26 42 75 2C A6 41 15 AD 92 3A 64 9C
 1D BF 58 3D 20 15 F4 93 C1 92 AC 16 B8 DB A6 D7
 8F 33 29 AF F1 5A 92 AC 35 D2 B1 FA CB 5A 7D B0
 6C BE 08 5A 36 81 0F 7E 43 8A B7 BF 22 83 5C E1
 D0 02 B6 B7 3B DE B0 4F 73 27 1E 51 9B F5 1C 9D
 03 B2 4D 36 EC 1C DC 7E E3 B3 EB F4 92 2C 71 66
 73 A1 E7 16 68 D4 16 3C 32 5C 9F 0B 3B 13 AE 75
 88 C3 81 2C 50 CC B6 DB 64 D8 CA 89 87 0D 1F 2D
 49 79 6F 81 3F 6A A7 61 EE 9F 2B C5 EB B9 2D 30
 A2 C2 D8 63 24 DF FE 91 D1 F9 38 4B 3A 98 69 69
 79 5D 5B A9 43 46 9E CB EA 5B 75 B5 31 26 C1 8A
 59 93 39 E2 39 CE 7F 33 24 CB B8 62 47 BA 28 28
 AE 2F 1B 6B 4B 60 B2 AF 20 24 7C E4 F4 7B 60 24
 36 0B 13 58 AC A6 4B 82 8E 9C 57 A4 DA F3 8C 85
 05 38 75 7E 36 65 13 BD 98 8A CD 6B 8E 8C BB 4E
 E4 FE 0C 01 89 19 05 A2 36 FA C4 69 92 51 F5 BA
 27 EB 83 0A 76 11 3F A3 10 33 C7 33 EE 4F 4F 19
 91 0D C7 1E EF 37 EB A1 AD 51 5F 05 67 87 A0 20
 36 83 F9 73 91 80 37 6A 8D A1 88 23 78 65 5D A5
 06 50 6F 34 D9 9B 12 78 CB CB 66 52 31 77 62 E8
 71 58 82 2D FD 43 3F B6 71 6C 66 86 1B 77 52 58
 95 1B 0A 12 8D 61 3A 40 A0 2D EE 15 BF 89 90 9D
 4C F8 C5 C2 11 EE 7C 9C 41 26 75 9F 26 1E 43 16
 21 12 1F B8 9D B5 9E 56 36 B5 89 DE C9 F7 53 6B
 AA 4A BA E8 F9 30 5D 95 7A 5A EB 8B 1E D7 86 E6
 07 30 94 6D D3 0B A3 21 6C 0F 95 CC BB 45 97 41
 CD 2E 5D 7D 4C 4E 43 98 0F 13 20 E6 6D 26 5F E7
 6D 64 A8 5F 62 DE 86 FA B3 F2 02 0F 19 9C 8F D2
 EA D4 39 33 5A 8E 1D 8D 04 E4 1A 39 2C 07 23 B8
 5D 21 30 24 51 66 35 06 ED 1F 9C CE 45 55 D2 9B
 2A 4B B6 6B 5B 6A CF 82 BA 08 42 94 D5 E6 90 C6
 FA B1 08 7C A7 61 D6 A3 51 7A CD F0 FE 83 8B F9
 51 6B 9C 9E 1C 0D 15 E8 89 9F AB BC 29 55 ED 22
 30 14 0B 06 93 F2 2B 1B 98 B6 9A 34 A1 52 80 F4
 89 B5 DA 3A F4 89 85 A8 1C 38 49 88 B0 B3 47 4E
 C2 E3 F9 2A D2 EA 03 3F 53 95 AF 80 1A 7D E9 72
 3A BE FE 30 C7 CE 9B 6C C6 C0 FB A7 77 1F FC 81
 96 70 31 34 B1 05 8D FA B2 B9 97 EF 9E 95 D4 39
 75 67 03 15 00 63 EC C0 93 FA 20 87 18 22 9C 62
 1C 9C BC F2 B8 BA F5 39 56 FC 1F E4 04 CD 8A E0
 37 A4 00 05 7E 75 48 9A D8 99 F0 23 47 A7 EC CB
 F3 5D 7A 90 67 C2 FE 2E 08 E5 D3 43 7F 74 61 E3
 C3 60 52 F9 F1 C0 A2 A7 AF 65 B4 D1 66 73 FF 24
 8E F7 C1 8B 1A B8 67 23 FC DB 83 8A 40 FF 41 85
 DB 0A 15 EB 52 97 33 25 0C CC C7 9D F5 4B 11 37
 5C 02 54 1A 6C 24 58 C2 36 73 76 16 CC C0 75 8E
 F3 EE BA 8B 94 A7 B1 FF 68 ED C4 FA BD C4 6C 84
 86 FE A2 53 06 44 0A E5 69 DD BB EA 9B 36 7C E3
 52 11 FB 7B 60 60 B5 42 1A 59 4E 82 FD 5A CA C8
 9A 96 08 4E AD 17 34 68 8E D8 32 27 1A CE 8E 3A
 5B 58 F3 AC 69 5F 06 62 29 D5 12 AA E0 5C 04 7B
 DC 8C C7 11 92 31 C4 83 97 83 85 84 68 80 ED 8E
 E0 2A 06 55 27 46 8F 70 96 4A B4 D7 E3 2F 49 B1
 93 DA F1 3F 24 17 D7 93 75 AA A3 61 05 8E 92 56
 12 E0 D6 D6 39 D1 B6 37 76 EE 31 33 DE A2 8C E2
 D5 F9 72 90 4D 97 80 D0 63 57 0C 16 86 2B BF BE
 8A AD 42 3F F5 73 28 40 76 80 7E 17 E0 DA 68 57
 B4 80 5C 4A 14 3A 97 D6 DB ED 19 CE 5D ED F2 2A
 15 A1 43 7A DE A7 E4 A5 75 BF 4F CC 98 ED 3D AF
 14 F7 C1 84 C2 A6 57 48 06 1C 09 D1 67 B5 73 B8
 98 3F 34 64 92 D5 C8 96 74 82 EF 1D C4 FF BF 24
 05 A3 4F 9E C8 5A 90 0A 3A 68 18 BC F3 53 BA 42
 15 0A FC E6 28 E7 01 01 51 62 6A 6A 84 D6 AE A0
 48 BF A4 1B 27 7E C3 A1 1E 8D 15 3D 51 09 D0 58
 0B 82 67 90 FD 5E FF 04 4B B7 53 16 D2 3D B2 AC
 CB FF EC F7 C9 73 4A A1 B5 97 CF E3 59 CA 23 0A
 D4 58 C7 1F 6A 2C DF BE 38 56 95 16 38 DD C3 9B
 12 0A 61 18 6D 61 76 87 C4 08 7E AA 83 04 FF 3B
 BB 24 E7 D5 C1 50 F4 EB 2A 95 67 60 AA 40 81 FA
 D9 1D FB B7 3A 79 32 CC 71 18 66 DA 8D AF 16 FB
 82 A4 3A C5 76 11 B8 3D 06 08 10 BD 24 5C 51 D8
 00 E7 6A F4 C3 9A 5E 29 20 2C 7D 61 43 45 09 25
 72 3F 0B F1 44 88 A7 97 A9 18 F5 01 5A 00 56 6B
 9C 6C C8 CD 19 C7 EE A4 C8 0D 1E 51 F1 79 B5 B3
 83 86 8C 11 C0 5D 2F DE 87 9E 2D F1 97 5B DE F5
 94 EB 1E F9 82 63 4D 1B 17 96 39 12 75 63 F3 B6
 8D 73 60 E7 85 7F 76 04 B9 8B 9D 5A 9A 7C 2C 94
 75 6E 00 68 36 67 01 8F A8 01 FE 89 35 F7 DC E4
 2A A8 8C E0 37 40 48 7B 99 9A 34 C7 7A EB 68 AE
 0D 30 C8 E3 B3 72 62 BB 0E 3D EB CC F5 49 28 78
 29 53 E3 CD F8 9B 1D 0F 54 8B 1D CA 38 15 03 7A
 B4 C8 33 4B 28 4D 0D 38 60 A0 F6 DC 12 32 54 BD
 E6 AB F3 17 2A 97 0D 3D 4D B2 68 51 61 F5 EB BB
 DD FE 9C 99 AC D4 B0 91 DA 6C 2C AA 3B 5F 72 F6
 85 F5 6A 59 B0 46 79 6D 70 27 4F 1D EB BD D5 F2
 64 C3 02 C7 EC D8 D2 67 8A C3 0B AE B1 E7 FD E3
 B1 B6 7F FE 97 F8 E0 FB 7B 3F 6C 61 3F D2 B9 A4
 9B 26 CF 29 A8 E9 0B 3D FD 54 BA 5C 92 94 77 32
 13 8C E5 B3 3B 82 4D 25 9F 18 0A F7 61 8F 6B 20
 E6 F4 71 46 0D 05 96 EB C5 EA 92 58 EE 3D 87 29
 B7 29 59 CA CA E3 B2 D4 12 D9 97 EE 8B 6D 3C B9
 1B D9 14 4C 25 EB 5E 2F A3 94 6D BD 3B 88 47 3C
 C1 D1 C2 7B C0 C4 88 01 68 4B 5B EB 2F 4A BA 8A
 6C BD 51 ED B5 E3 7F 6F 4D F1 A9 F4 37 D9 23 A9
 FA 2F E9 2C 94 E1 A5 83 14 40 3D 93 E8 16 FD CD
 08 FB A8 EB 3D 6E E1 2F 72 0E 42 F0 BC 88 A1 97
 7D 81 97 A2 86 1E 5A 58 77 DB 64 F6 82 93 DD D8
 0D 69 F0 DC A0 14 88 12 E0 4A 5F 35 72 4C 28 49
 3D D0 F6 CA 1D 01 3F C3 82 9F E3 7C B9 96 8A 5F
 1B 2F 18 D9 F0 57 D4 1E 90 EE 67 A7 56 08 8B B1
 7F B4 E9 80 E6 F8 51 9F 2D C7 E4 B0 5E A9 35 BD
 37 72 42 03 25 EB 1E 62 82 B8 2F 2D 16 E5 B6 5F
 63 E8 AE 8A 4E F4 8B 43 8C D5 85 A5 C0 F9 38 4F
 4C 6D 81 17 98 52 0D B9 22 7B 3F D3 2A 3E 26 2A
 29 0E 20 62 31 AA 89 42 EA EA 37 BC A3 F8 CD A0
 33 99 67 42 A4 B2 F5 DA 79 DA AD A8 11 90 3B D0
 83 3B 26 DA 6B 34 8E 8C 8F 74 68 EF FF 34 B4 C8
 7A 60 EA C4 46 CE 62 32 A1 B3 DC E6 EF 90 75 B1
 CD F0 D1 CF 65 6D A8 C6 7F 8D 61 BE A7 8B 7A 07
 F7 1D 14 02 27 9D 0D EE F5 7F 94 CE 5E 3D EC 50
 6E DE FC A4 2D 46 77 8C 63 03 1A 78 77 4E 0D 30
 B8 BC F8 CA D1 CA 32 D4 BD 59 47 29 4A 1B DF 0B
 BA 43 5D 0A 0A 16 6C 01 9A 04 5C 69 CA 82 21 1F
 84 11 41 92 7B 35 C5 4D 50 7E 9D 22 35 D7 F5 E0
 50 25 61 7A 83 28 A6 3B 74 2F 84 01 E0 63 97 DA
 FA EC 2D 3F 7C 0A 78 C6 B0 51 5F 0E FA D7 7D 54
 A6 75 B7 23 57 9C 63 B3 1C 25 87 52 E9 44 5D DD
 C7 48 88 4E 85 7B 82 2B BF BC 97 3C 6C 43 00 A1
 42 69 C6 65 4B 9B 46 B0 C5 C0 07 01 82 4F FB 8D
 BF 42 B4 A9 0E 87 0B 96 4D EB 90 37 A2 D1 4C 8D
 17 26 1A C9 AC E2 F0 18 5C C2 7A C0 54 78 4A 7C
 22 88 C4 DD 43 0D 70 70 99 25 7D 32 D0 93 2D 76
 D0 37 1E C6 58 C0 0A D1 F2 B7 2A A1 4B E2 76 6F
 56 6B C2 7F 7F B5 63 4C 34 1B 47 5E 46 D0 03 23
 59 5E 59 A4 35 87 5D EA 0B 21 8B B0 5E BD 89 0E
 7B B8 BF 4B 98 B0 C3 DE E7 74 40 C1 93 6A 62 A4
 24 99 87 4C 63 8F A4 E1 39 43 4C D7 AC 5C 36 85
 B7 4E 4E F4 85 D2 B9 A6 61 67 5D 25 5A 2C 78 E2
 71 B5 A1 C5 6A 93 47 2B 5C DA 33 2C DF 55 61 CA
 C1 2A 16 D2 DC BA 8F EF D7 0A 2C 2E AA AA D3 CA
 65 B7 09 BE 9C 9A CC 7C 74 85 6E F3 94 97 92 2D
 BE D9 E9 6A CC AF 83 94 98 92 84 EF 68 EE 81 3D
 54 70 6C 7C 73 A8 65 A0 E0 A6 A1 ED C2 0C B8 98
 CD 88 B3 B7 77 DF 10 8B 0D 27 55 BC 9D 45 DB 62
 CF 51 CF A5 D8 24 13 58 AF B3 CE 2E 44 B4 E9 0B
 E9 D4 AC CB AC DB FA 4F BB 8D 94 9D 8C 78 E3 28
 13 E0 A7 0D 5B 38 2C 87 8B DF 8E 6E BF 66 D1 40
 C2 ED E7 49 11 21 59 B3 23 85 22 6E 96 01 98 F9
 FC FA 14 4C 3E 41 2D 62 B0 D3 E7 2E DC 9B CC 14
 E1 63 71 C9 4B D7 45 35 4E B3 67 8F EF 87 FA 5E
 12 44 96 11 0E CF 5C 4E 05 28 CD F4 AC 65 F8 64
 A3 83 BC B2 19 C0 71 1A C9 BD CC F0 C4 F6 5F 5E
 C2 94 FA 86 AD 5A 27 37 70 14 25 08 42 BD 05 E2
 E6 4D 29 CD F0 70 A3 87 F4 E4 1E 8C 43 2B 1E FC
 73 E8 9D 24 61 33 38 BD 95 8D DD EA BC 7E AE 73
 A2 75 F3 F2 22 CD 98 7C 94 CC 2D 18 C4 86 69 9F
 54 1A 94 62 15 1A A8 2B 54 A0 EA 59 0F FB C6 19
 61 4F 76 58 51 2D E9 DD F9 24 B5 E2 6C BF 81 74
 81 27 61 EA 71 CE 02 DF CA 8D 6A F3 16 A9 93 F3
 6D 8D D2 60 6F 0F BB 23 9F D4 C2 70 43 8A 57 B2
 71 C8 84 90 88 51 A8 00 B7 5F D2 B3 69 50 40 6A
 11 47 58 40 F1 1B 8B D7 8C F1 91 0A C6 A6 80 DB
 CF BF E2 68 CC DD 11 BD 7A 44 E2 F1 23 A1 48 4E
 F1 B1 9F CD FD 75 73 CE 55 0B 8D 6E 4F 90 43 B6
 0D 87 20 DF 73 96 85 67 2E DA 91 9E 19 90 C0 83
 23 32 5A 1B CE EE C9 9C 06 E4 EB 2F FE A0 09 92
 57 09 0D D4 BC DF 83 E3 2C 89 2B EB 8F E5 97 08
 C8 5D 12 4B 47 0D 00 A2 78 68 B7 3D 40 16 7A E2
 36 2A A8 24 87 00 62 BE 65 5E 50 CD 72 CC E1 EB
 FE 2F AA 5F 02 DC 69 AF D9 3F 03 F0 36 5A 80 E7
 65 49 23 AA A9 3F CA 19 34 2C E5 50 49 D3 AB AE
 10 3E E1 68 07 06 E9 C3 FC 38 6E 81 B8 28 17 92
 6A 82 E6 4F B3 4D 36 C8 A6 2C 37 D8 FE 8C 84 C7
 9C 0B AD 1F 44 75 5B EB 00 D7 53 F6 E5 4D 97 30
 02 DE 1A 1D 0F A3 45 0A F1 63 83 36 0A EF 95 30
 2E DC E0 44 C2 19 EC 2D 85 85 B6 77 FA DD 20 EE
 A6 53 2D 17 5A FA 50 FE 79 CF 39 5D 72 BE 3F B5
 F7 A5 C0 D9 35 0C 39 6E 49 A5 A2 A3 A7 C5 BC 5F
 9D AA 89 26 76 72 DE 17 BA CA 41 CA 14 89 83 44
 F7 CA 4D 15 F1 FC 90 B9 D3 A8 14 AB 90 06 46 71
 9F 77 7C 27 D6 DE 31 0B 44 7D 69 BD D2 89 AD 9F
 8B 9B 51 29 E7 1B E6 65 BB DA AE DF C9 24 E9 A4
 F4 CF A3 0B 4C 39 63 78 E8 DB 30 30 39 FB BC EB
 5D 31 1F 7A FD 15 AE 20 45 84 9A 6B 68 BE F3 CB
 B1 B8 07 4E 39 4D 88 53 8E F6 BF 96 93 BA 84 F6
 FA EB 8F 45 A7 CC 5C 1D B3 50 38 5C 73 72 4B 07
 1B FB 87 12 EE 83 41 84 BB E0 0D FB B5 98 48 B6
 80 02 04 7F 22 8E 58 89 44 75 97 97 06 36 7B 5B
 E6 99 BB 24 0D F6 18 20 97 23 D6 2B CA 63 41 CC
 42 6F 39 5A 78 D2 5B A2 A6 19 EF 84 DF 12 DF A3
 FB D8 C3 0D D4 9E F1 0C 78 D6 B7 03 D4 F4 E1 92
 20 DF 2D 46 6B 2C B9 34 8F 8E DC F4 F8 C1 A0 4A
 32 A4 19 53 14 2E CA 12 6F 18 A7 EA A2 EE 59 A4
 73 A6 53 13 8C 86 A8 A7 69 51 D9 F7 0D 0B 95 BD
 A9 08 6A 21 B2 13 34 2B 0B A2 D3 C2 C5 B2 45 CF
 F7 DF 7F AE CD A5 66 5C 50 59 B8 8C 64 39 36 0A
 7D B9 E6 0C F6 94 45 EF 7E 20 CA 54 EA C7 11 B7
 B2 83 54 67 6D 1C 2A F9 24 A4 CD 07 70 73 D2 25
 87 73 2B 20 7D 14 1C 9E 94 61 4A 1E EF 39 D4 F2
 75 DC 32 64 06 F1 46 95 27 19 43 FF 06 34 B9 00
 FC 04 65 4E 30 1E 72 BB BC 64 AF F2 CE 13 97 9D
 D3 2D B4 70 BC F8 84 C1 F9 35 3F CA 22 63 F8 A5
 59 BD E1 CC 34 7E 93 AA DB 38 68 4E 0E 6E 46 44
 63 E8 0B 24 D8 9B 0D C4 F5 C3 EB 44 8A 03 5D 58
 3B 9F AC D0 E2 B3 6B 88 CC 14 F7 9C C6 D0 A1 AE
 C9 F5 D9 1D 89 BC FD 76 3A CB A2 74 78 57 03 E1
 49 4B 64 5B 96 2A CB 50 D8 E4 FF 29 C7 74 C5 48
 B2 9F 5F 9A 94 E1 2C 29 30 BB 89 A2 21 A0 B7 D2
 9C EC 24 E9 F3 1B 73 5C 0E 33 C7 F8 79 57 5A 70
 41 8F 91 F9 E2 B1 18 CC 31 D2 82 E5 4A 44 6F E9
 0F AC 27 EE C4 02 FB 02 AC BB 44 17 FB 96 2C 83
 50 10 F3 3D 38 AD B8 36 71 E9 E9 BB 15 43 E7 25
 58 2F D6 AD 05 BA CC E3 D4 9B B6 98 F4 FD 27 E7
 BD 93 10 A6 C4 80 08 BB C3 37 5E 83 E1 B8 68 1A
 C3 8A 9B 22 13 75 C1 33 CB EF FB 70 47 01 4C 32
 CF 4B 7B ED 77 B4 8E 5E 4E AD A6 82 21 DB 21 30
 04 7B C1 32 FC E9 1D 29 50 52 5D FD DD 84 C1 01
 6E 58 BA E1 97 D6 2E FA 1E 05 FD 03 89 33 43 5A
 DA 94 B9 0E 89 48 F4 78 05 05 C2 2A 5B AD B3 1E
 30 1E 5A A0 4D 63 0D 06 BC EC E1 1D 81 B4 4D 2C
 E2 77 DF BF D1 3D 98 B1 A7 98 BE 96 F8 1C 25 6C
 07 C0 69 C8 46 BF 60 E0 78 DC 3D D8 31 FB 62 60
 64 10 60 7C B2 00 D8 2B 5C E9 23 C5 40 AF 6E 5F
 95 8B 2C 37 F9 2E 67 02 6D 06 F2 9F E5 1F A7 52
 11 FE D2 F5 4B 35 46 9C BC 2B A5 17 8E AE 5B E2
 2C E8 01 3F 75 EF 28 61 35 15 19 24 2C 45 EE 25
 57 ED 12 55 9B 90 C2 5C 56 29 FF 9B 31 5C 67 BD
 0F 6B EC E2 20 16 83 EF 87 1E 24 C6 B5 84 87 AF
 01 46 D0 64 2C C8 8D 6E 07 FE 3C 13 68 C9 E5 96
 C9 EC 82 B3 78 79 79 37 62 46 05 36 43 FE 14 4B
 3F B8 9C E4 BF 78 4B 81 7C 98 C7 81 87 6B DD 27
 EF E3 3B 92 39 3A 28 33 3F 10 66 00 2B 3B D3 2E
 3E 66 B1 A7 1C 40 A0 B0 67 A5 76 30 DF 54 63 60
 14 9C 8F 4E BB B0 81 E4 CF 65 CA 6B 06 5F D6 63
 93 99 93 92 C6 9B F2 05 B8 E7 BA 1B F6 83 CA E4
 93 D3 21 3E EA 5B 57 33 1C 05 7C 38 49 0D B8 37
 C8 F6 D6 B2 0B B0 85 07 81 40 EB BA CC 39 70 51
 D7 56 D4 89 86 7B F5 E8 9D 87 C9 B4 0B AF A0 83
 01 CE 18 32 3E 87 FC 7E 59 46 69 38 C2 8E 49 FD
 50 5E 53 B3 39 D5 BB 20 BA BB 9A 96 41 83 AD 8C
 C0 D5 E9 1E C4 C8 BB 1D
* End 2950266260 915433834