* LTspice Encrypted File
* 
* This encrypted file has been supplied by a 3rd
* party vendor that does not wish to publicize
* the technology used to implement this library.
* 
* Permission is granted to use this file for
* simulations but not to reverse engineer its
* contents.
* 
* Begin:
 4F 78 AC DB 1F 6C 30 1D 7B AD 91 D5 4A 8B D7 7D
 F9 31 CD 13 E7 3B 2A 6F 2E 29 90 F0 92 E3 96 13
 73 FA 01 B8 C1 3D FB 9A D0 44 77 19 F0 BD BC 7B
 10 63 26 34 C2 EB 20 F4 20 EE 49 A7 78 A1 C7 0A
 EA AF 42 4E B3 47 3D 67 80 0F 48 59 5E AD 5B DC
 08 C5 25 22 21 3E FF AE B6 50 AC 29 76 BF 99 79
 03 B9 A0 16 76 AD 4C CA 4A 23 2E D9 1A 09 AC 31
 52 00 5C D5 93 38 DC EE 42 CC CB 80 51 77 81 75
 38 A3 9F D6 9C 62 EA 05 A9 42 9F 06 AE 86 35 49
 1D C7 1D E3 8E 31 B7 05 C1 7A 09 C7 10 6B 03 BD
 9B 7C 41 06 AC 13 F9 66 F7 76 8E CC E5 ED 04 0E
 FD FC CA FB E5 7A 5E E4 51 BE 19 A7 A7 73 06 D9
 61 32 10 9F E6 C8 9E 40 92 D1 AF 9A 9D 5E B3 72
 07 C8 FC CA 4F 88 58 83 2E 14 44 9B 0C 6C CD 24
 45 46 C5 CC 32 DD AE 7C 05 58 6F 51 B4 DA B6 48
 2C 6E E0 31 17 EF 10 B7 DA 19 34 4D 8E DD 9D 43
 49 A2 18 BA 2A F9 BD 9C 32 9E 21 35 39 E7 1F A9
 86 24 3B 10 D3 B0 83 77 EB 22 4D CB 5F 7B 69 0B
 55 E4 0D 67 1E BB DD DD C3 3D C9 4E 16 44 92 C8
 FD F6 A7 6D 25 63 90 3D 25 E5 F1 7A 13 57 C3 EC
 A3 16 E4 42 06 78 84 EA 40 6C 7D E2 D3 E3 4F CA
 48 51 B2 CB 81 D8 14 4C 74 4B F6 6E D7 49 81 B1
 72 03 A4 53 60 CF 42 A8 52 D1 0A A1 9B E2 C8 82
 6B 68 0B A4 C5 25 0B 59 FA 30 DA 8E 27 99 7B 4B
 12 7A 2B 98 02 0E 60 98 22 11 BD 7F E0 06 D6 D6
 B9 34 E5 F3 55 CF 95 4F 6A 52 07 51 83 E2 1A 35
 F1 56 B3 5B D5 F2 B3 F4 3E E5 AF 79 30 5C F3 31
 5B 68 F1 2D F8 91 4A D1 E1 15 C3 35 52 D9 63 EF
 B5 8C 79 5B 54 08 14 90 A1 2C 42 A1 4D AE 11 30
 1F 03 00 7A 4C 11 29 23 BB B1 0D 7F DC 36 CC 37
 E4 D4 8E C8 BC 39 26 2B 1D F7 6B DC 3D 9B DA 90
 1C 28 06 56 FF 91 3C 3B 93 4E A7 BA D5 91 64 EA
 81 6E AA 36 72 04 13 FE 11 7F BC E6 89 4C 6D 75
 DF 31 96 02 68 64 33 59 CE AA 14 87 C2 51 BD 17
 73 DE 6D 09 24 5B 41 72 F9 E7 2F 7E 29 05 57 2D
 7E 45 69 B3 A3 1A 51 CB 10 95 62 22 7B 03 84 A5
 9E 73 60 AB D0 7F 73 44 4F FB F5 A8 9C 8A EF F9
 BE E3 80 46 4C 84 0C EF 77 D5 3D 10 8C F7 14 CD
 5F 0F D7 73 AE D8 58 EA E7 7C 4E EA 53 6F 9C 86
 04 EF 10 D9 8B 99 6E CA 8A 61 CC F7 90 B2 DD 48
 47 2E 06 A3 FE 71 5C 5D 4D AA 71 F2 0E 16 53 B0
 2E E9 C8 1A 1A E7 5E E5 69 A4 0C E5 3A 9B 91 4B
 81 44 08 A1 90 68 22 F4 07 52 5F CD 16 3A F8 B2
 3A 15 57 C8 21 98 2E 36 10 69 D8 3D 3A 92 E0 50
 4B 5A 38 07 B7 81 26 34 2F 01 6F A9 4F CB D5 A2
 FD 61 66 4E 8A 0F 6D A3 A0 21 DD B7 28 ED 86 E5
 04 B5 88 D2 C6 84 0F 38 73 0E 92 F2 92 A7 96 D8
 85 4E B1 C3 27 29 49 E1 71 7A 54 65 4E D6 E9 CD
 A3 FC 3E 7A EE D6 01 71 55 F5 BF F5 65 0A 49 10
 51 11 BB A5 24 21 28 AB 06 A4 54 49 28 A5 26 CB
 33 19 46 AC F9 8A A7 5B 59 65 08 12 14 D2 9D D8
 6F A7 CE 94 2A B5 8B 78 AA D6 D6 C9 D5 28 68 09
 7A B3 0E 2C EF D2 19 42 71 A4 07 65 15 F3 D5 18
 56 A0 B2 09 45 08 8A CA B8 AE 51 08 F8 3F BB 37
 D1 0F 13 E1 79 B4 35 91 96 16 22 9C 9F 41 5D 2B
 21 A5 72 05 43 64 B4 3B FD C1 31 F8 EE 03 2D 2A
 D3 42 09 EF 93 75 B2 7D 99 E9 01 07 DC EA EA BE
 79 54 1C 73 8C FE B0 93 67 44 D0 E2 5F 51 4A 24
 72 B2 44 46 71 3B EF 84 08 BD D7 48 E4 9E 60 38
 FE C8 35 73 B8 CF 77 2A 87 97 76 D8 03 D6 37 5B
 A3 4A 5F 12 CF 80 F9 2C DC 9F 42 16 4E 85 53 7F
 A9 43 82 B2 F0 A9 A0 D0 EE 0F 44 4C BF BC 41 2F
 82 00 99 9C E0 94 3A F4 D9 F9 CF 12 08 79 4C F0
 91 3F 47 48 10 82 5A FD 48 C4 DC 8A 49 9E 1C E8
 AE BB 7C 3A 60 38 F4 A0 D8 16 F9 9C 42 AF 93 88
 8B 43 61 5E FE 65 94 B9 F0 2D 8E CC E5 CA DA F6
 E1 FC 8A 1F D7 C4 89 F0 1F A1 AC 03 0E 3F FE 55
 C8 46 8E C9 D7 73 B4 90 7C C1 7B 96 5F 5F 2A 49
 C0 A2 9E DB 56 1D 23 B0 47 99 2E 5F 1A 98 49 C7
 95 56 79 51 A9 EA D1 F4 E3 EE B7 80 B5 DD 12 86
 08 8F A6 22 55 83 E8 7C 62 DD CF 2A 7B A8 41 05
 C3 A5 F5 B9 EB 4A 73 BD F0 15 85 24 BF 35 37 50
 DD A2 56 D4 E5 A9 86 32 8E 45 FF C8 19 18 FA 13
 C3 04 92 A1 2D 1D 70 BA 11 7E 32 E0 53 54 78 A9
 BF 20 8F 8C 05 92 FC D5 CE EE 58 BB 38 54 4F FD
 BA FE BB 33 D4 97 5B B7 DE E0 98 7D 25 20 F7 AB
 F9 E8 70 08 BE 7C 10 54 8D 2C D5 13 A6 81 71 E0
 96 9B 4F 36 D1 58 12 92 64 41 4C 4F C4 BB CF EC
 33 06 4F DE FF 2B BC ED C6 40 0F C5 33 46 B5 EE
 68 DC 8E F0 46 8F A9 67 2E D5 EF 6D 1A 39 D5 C5
 21 1C AC C0 4A 2E 4B CE 56 A4 F2 29 B8 44 09 87
 12 09 18 43 3A 65 47 0A 10 80 52 42 DF B5 34 F1
 F1 A4 72 03 CC 53 39 05 D6 2D 0C 29 97 91 6C CA
 3E 39 9F BA 17 2F D3 FD 39 DC FC 8A B3 B4 28 E4
 45 C7 F1 F4 0E 02 66 9F 81 68 B6 A4 89 02 75 15
 DC B2 18 9D 1D 64 18 78 88 05 67 D2 70 5B 56 9B
 49 90 C9 7B B7 0C DA B5 69 E8 39 CC EB DC F2 AC
 AE 47 E8 2F 72 B1 E2 5E 74 B8 95 CB 90 F5 71 4D
 AC A1 5F C6 4F 16 FB 14 4C F3 3E FA FC B7 B9 4C
 D5 3F D1 4D 06 61 07 B6 4A 88 9F 33 34 84 34 F8
 11 66 77 EF C0 04 28 16 5F 89 5B 7D B9 97 61 BC
 96 51 A7 8D 58 45 B9 15 5A 4C 7F E6 8E 5B A0 5C
 33 9E DE 38 8E BF 7B 57 6A B0 E5 4D A2 8E BF 97
 B0 DD 95 D4 C2 D3 95 AB C3 6C FB 57 D9 79 85 CD
 18 C4 9D E8 D4 F4 CE A9 0F 3C 9F B5 B4 DF 9B 9F
 67 95 79 96 8A 37 88 E5 1E 65 CA 3E BB 4F B6 32
 95 AB D4 D1 D5 89 73 29 74 24 69 E4 D6 CF 66 40
 77 13 9D 4B 68 07 0E 66 14 83 09 20 8F 8E 29 6D
 A0 BD EF 8E 8B 3C 1A D2 B1 05 71 F7 2A 03 EC BF
 ED 6E E6 78 8B 8E 8C E1 45 C8 68 C4 06 A0 0D BC
 B8 E1 C4 89 34 AD B5 DF A2 74 73 9E B7 1F 6F 82
 52 2B 63 88 58 3D 6C C4 FB 0B 3F 9C 5F 69 CE E6
 CA EB AE AC 40 68 33 48 66 C5 E1 A1 B5 49 E3 71
 A5 77 E2 95 C3 19 D7 8B E9 19 54 55 32 38 D9 EE
 63 C1 9B 52 E3 00 BA C2 3B 89 23 4D A1 4D 76 94
 86 EB B4 88 FB 32 BF 9F DF 26 65 5D C9 EC FA 8C
 37 5E 28 88 F0 56 EA 14 1A BE DD 07 DA BB C7 2A
 41 EE BD E7 F4 74 A1 42 40 9F A3 C2 B5 BC 6C 24
 2B 21 06 8E 17 46 95 87 E1 58 59 0C 16 53 88 D1
 CD 9A 55 08 AA EA 61 3A E0 4C B5 01 6C 78 CB 55
 E5 87 30 B4 4B B1 65 80 C9 73 5E D3 36 53 DE 64
 B5 68 03 E5 CE 0A BA 8D F6 41 2E A8 1C 82 40 46
 08 32 22 78 E6 7D C7 9D A9 2B 63 9F D3 E6 0E B2
 E9 98 F2 92 40 F1 4C CC E7 7B 6B AB 06 7A 5C EE
 CC 43 50 E2 34 AA DB 19 9B 95 90 F7 D6 C9 27 B8
 8D 73 E3 48 84 A0 6F 67 7B BA 9A 67 22 E3 88 F4
 4D 28 64 D8 44 F1 E0 D1 1C 6F 05 84 7E 07 C2 4D
 AE 2B 8D 33 CA 91 0C 25 14 9C 06 43 FE D5 BA 48
 A9 4C 4E C2 51 69 BB 01 71 AC B4 68 C6 1E EA DF
 62 BE 84 41 B0 44 91 E0 3D AD 77 A0 70 C4 DC 45
 51 C8 27 D0 77 6A A7 8D FF 62 06 A9 08 C6 86 4C
 0A E1 B8 68 8E B1 01 E4 B7 63 5E 49 F4 AD 63 D6
 AC 0E F9 CA D8 49 5D CE 0C BF 17 C6 C9 3A EB A3
 35 61 C1 AD FB 84 DB 32 87 BC 6F A1 43 D5 9E 96
 3F A6 6F 0D 9C 58 E0 5B E6 10 AA C8 1F DF F2 5F
 93 19 33 E8 02 01 2B EB 54 EB D1 3B 21 C5 84 6A
 19 CA 68 76 81 FA 56 BD F8 6B 8C 3C 06 4D A5 85
 79 A9 3C 19 29 33 33 1A 43 71 DA EA A8 96 F3 81
 50 90 BF 55 9D 8A EC 88 F3 32 15 BD 5B 04 C2 42
 41 7B 84 5B C0 36 0B BB 31 F4 51 92 A1 CA BA 08
 8A 35 68 0F A1 66 49 6C EB B0 B9 B5 7F 54 7E 18
 75 F2 45 46 0F 96 69 AA 3C B2 40 E1 6A 87 5B 1D
 51 F3 34 29 60 28 BD 0D 10 D3 F2 09 27 77 54 4C
 84 DE 61 95 C2 44 D7 D5 DF 39 4A E5 05 24 93 AC
 82 4C 47 54 9A C1 61 57 EE FA 95 B5 38 74 31 51
 85 96 F6 F5 E7 18 8A 72 D2 EF 48 AA 44 C7 35 4A
 0D 62 F2 3C 2F 3C B6 C2 89 03 85 94 1F 1C 53 E2
 D3 03 34 C9 6C 11 2E 4A 3B 38 48 40 AF D1 49 88
 27 C8 74 23 74 28 1F DC A6 A7 8E CA 8B 94 2B EC
 C1 44 68 D9 EB 31 D4 F4 FF B3 8F F0 84 C0 13 1D
 CC 15 65 EE EF C6 FD 31 11 51 BE 6B 34 BC 58 3F
 6F 1F D4 5D 8F 6C 28 47 1B D9 CE 19 63 B9 11 A9
 31 3A 58 74 B3 92 73 51 30 66 22 44 53 5B 54 E1
 F3 C6 3E F2 BB 3F E7 FA 8B CA D7 BF 1D 66 F7 B3
 1E 4E 5C 07 6A BC CA C9 BF 2C 67 A5 37 F4 9D 66
 77 D9 47 5B DF A2 D8 B2 6F 48 56 7E 5F 13 DD D5
 06 33 B4 8E 11 9C 0A 9D C9 DB 07 A3 E3 14 C3 88
 FC 9F 30 31 0B 2B 34 87 1B 4D EA AE 1B 8D AC DD
 2D A9 BD 0F 2A 89 EC 7F 24 30 E6 F2 5A AE 2B AB
 C0 19 6B EE C6 B2 18 86 C6 6B 8C 9F B6 C6 FD EB
 DF 6C B0 6D 82 59 AC 9D 3B 06 43 26 AB 97 54 EB
 8F 5A 45 6F C7 5B 4F E5 E1 28 EC 95 57 77 87 E4
 B0 EF 69 6B 37 85 E2 8F 36 59 3A CB 15 16 97 B4
 F7 7B 49 26 68 99 A2 D2 5D A5 6A 64 D1 54 FB 64
 B3 0F 14 92 4D CF 53 FC 27 4B C7 9E AB E0 15 E0
 C7 9C 4F 1A 35 3E AE 03 C0 E6 ED 20 B2 A7 F8 71
 F0 AE 08 FE 05 79 A4 F9 3B 56 4C 80 8C 68 BC 01
 AF 3A 15 C2 6A DB 3B D7 AA 7A DD 33 F0 1D 73 DE
 53 27 F0 70 95 7C D8 5B 9D E3 96 80 A5 59 7B F6
 E0 3C EF 5E C2 4B ED 0A 7E BA 75 27 83 6A 37 9A
 6B C7 A2 CC 46 B5 43 81 3E BC 14 C5 0F C4 C2 68
 13 23 E3 87 E4 FD 01 4D 61 BA 65 9C 12 BE 74 FD
 26 19 0E 7C 16 95 C7 F9 99 F4 80 BB 0A 59 5C 53
 15 A7 C6 38 7B 79 87 EB 62 DB 0F 13 F1 59 96 8B
 3F EF 5F D1 DF 21 EE 33 C3 3F 97 1B 74 30 87 C4
 C7 4B 0A 48 5A FF 43 D6 1A D9 7C B0 92 CC 7D 47
 22 2D CF 6E 2D 03 4F 53 FE 7E DC 7D C5 6F 81 CB
 FF 1D 05 C7 A8 50 CC 2C 17 5A AE 4A 9F F3 AE BF
 41 8D E6 60 AA 00 3B A1 FF F9 03 29 BA 36 C6 8F
 91 8C A2 63 C5 3C A9 E8 A9 7C D1 3D 10 89 06 79
 2A 30 EE 8F B2 E2 53 85 8C 23 4C 86 F3 B5 70 D4
 CE 7A F7 5D F7 DE A7 18 24 5F 99 A7 A3 8E 02 DE
 13 93 D2 D6 26 9C 2F 12 70 95 A0 8B D0 EF 2F A6
 04 54 C6 62 68 7C E2 14 DA B1 7D B9 E1 E7 AA 84
 C7 E1 97 3C D1 D7 9A 78 0F 89 C0 A9 91 80 4E 70
 21 91 EA 07 56 68 9C FC 54 01 24 80 93 57 93 62
 43 10 1D A0 D7 B1 2C DC D4 0B A3 D2 D2 0C 22 E6
 43 90 08 0F E4 FB 4B 34 5A 6F 1F 66 47 B7 C7 5C
 B4 48 B0 AD 9F 1D 24 20 FB 61 CF DC F0 28 1C DF
 D8 61 C1 59 9C FB A7 8C 4D F9 DA 58 B1 DA F1 73
 1C CC F7 E4 CE 02 54 4D 64 F5 F5 C6 56 0F 7D B5
 9F 9B 15 B8 73 61 08 B3 2D EE C4 01 16 AF 47 DA
 29 77 BB 77 DF B0 C2 17 DA DE 79 63 D0 A0 9A 8B
 63 0E 81 A9 3E E0 C4 15 F7 11 A7 34 BE 98 79 92
 91 41 D6 7E DA 16 16 5B D2 FF 4D AD 7F DA FD FE
 51 1B 27 9A BE D0 23 95 4D 1D 35 7C C6 3F 11 A4
 91 0D 4D 0D D6 42 5A 88 2A 92 99 6F 62 DF 6D 48
 2E D9 4F 56 05 B1 A1 39 F7 BB 8B 43 23 F7 BD CE
 BB 89 DA 33 2D 28 13 54 2C 73 B2 24 F8 11 CE 84
 BC FC B6 DB 0E AB 5A 16 62 9E 56 93 A9 A5 41 12
 5B 49 8C E4 61 44 41 C0 EA CB 06 B1 CD 5D 78 4F
 D1 C2 6C 1F 5D E2 44 D0 B4 4B 4B 19 D3 58 7B 94
 96 02 03 A1 56 1F 2E 97 A9 A8 96 5D 7C E6 02 4A
 A3 E7 6D D3 88 1D 29 65 A5 62 99 9D D0 C7 D1 B5
 9E 64 38 DC EF 0D 94 D2 A5 85 ED 6E 27 1F 38 B7
 E7 97 24 F9 F9 0C 0C 97 F7 BA A8 FB 8D BB 81 82
 C3 14 35 3F A4 D5 B7 F4 AF 9F 05 9F 1E FB 3D 81
 CA 41 22 2E DF 5A 61 F7 F8 97 CC B5 91 8B C2 E9
 EF F0 28 75 59 1C 1B 1B 77 AC 38 47 B5 BB CE FC
 D1 84 A9 4C CC 52 04 C0 21 D0 A9 D2 8B FE D0 94
 E2 17 C7 90 3F 63 8D 97 18 88 CA E5 78 95 57 8C
 04 24 8C 87 61 7A 67 44 5F 1A 3D 9F A8 8C 2D C7
 FB 61 61 59 C8 6B 49 15 3C FC 0B 90 B1 6E 6D BA
 19 AF 81 84 EA AB C3 0F FF F3 EF 2B A4 8B 01 60
 05 59 F9 FA 23 B1 41 AA 90 E8 ED 33 79 EB F3 B1
 51 0E 69 B2 14 D1 2E C5 4B 85 7E 08 1F C4 A0 7B
 53 AE DD 0A 66 A2 A5 A5 95 80 60 F8 9A 65 CB C9
 6B 5C D0 7B F8 93 0E A4 5C C9 20 39 CD 9E 6A EB
 0A 14 AD 67 7E E8 61 B8 6A 74 E7 EB 7A E6 D2 25
 81 43 D5 8E AC 2E C4 CB 98 A2 6E DC BC B6 62 29
 39 AB 67 8A 50 29 90 B8 A2 2B DE 0B C7 E3 92 B1
 6E B1 03 87 F9 F6 7A 7E DD BB F6 4B 02 24 B6 05
 77 5C A2 6C 46 C1 BB D3 1F AC 4B 0C 21 9E 35 74
 D1 25 87 EA 67 1D 43 EF E1 68 74 0B 50 25 BB 06
 4A C3 7B 52 6C 14 72 24 17 6A 8F 18 33 62 E5 A8
 9B 62 89 36 21 C1 89 C6 F7 F7 EF E9 C3 3F 89 43
 F1 94 D9 07 98 27 2F 3A 76 45 44 43 7A 30 13 BB
 97 40 4A 99 D2 58 F9 94 87 68 07 C7 22 48 55 0D
 45 D5 75 33 C3 3B 1D 0F D2 A4 FF DB BB 24 AB C0
 AB E2 03 90 2B 49 F5 4A A2 FB 33 21 2B 27 BE 17
 45 70 A8 9E 93 B3 B8 F2 77 39 25 95 AE 43 7A 23
 20 FB B9 8A 69 BC 4F 47 AB 46 A0 CB 4A 48 49 3D
 54 5B 5D 3E AC 7D E1 05 76 F9 61 C9 B7 B0 82 4C
 1C 11 49 69 36 29 86 AF 2D 71 D4 EE 59 4D 36 51
 B7 8B 7D 7D 7B D5 3A 74 1C 38 A0 85 CA AC 2F 23
 81 DF 26 6F 10 A7 EA C1 F2 D6 4A E8 D9 90 6C 9A
 1F B8 FB EC 2C 61 AB C7 C8 F0 BE 18 87 AA ED A4
 88 BE A3 C7 6C 2B C9 0B A8 B1 9D 48 1B F4 10 5F
 6B 69 B1 CD 85 AB 30 DF A8 0B 67 49 DC 39 8A B1
 49 79 06 26 B1 F8 DE F0 DE F9 7E 57 9F 4F 52 D4
 25 A9 CE 16 92 5E E5 C6 FA 5A 5E C9 4D F9 44 75
 FD BB 0E 7E EE 5C C3 D2 43 07 14 93 38 5B 83 C7
 16 D9 04 C8 82 8D 1B 7B B5 2F 40 2F 71 CA E5 57
 C1 EC EE 4C 65 50 51 88 14 B4 22 F7 9D 27 B4 9D
 22 51 7A F5 6E 3D 7B CD 1A F9 9F EA E7 7F C0 3C
 95 30 C5 32 C6 5E F0 57 A0 E1 DB 44 BA 4C 3D 13
 DD 4A B1 47 7B 62 96 D8 79 96 FC 8D 39 CB 4B 6F
 5B B8 23 A0 36 B5 70 AA A1 B8 6F BD 76 2B D5 8D
 3A B0 8F 7C 8D 40 3C A3 BA 7A 1E BC 5D 8C 2D 30
 D9 A4 6F 93 B4 80 49 DB DD 0D 3E 93 85 86 9B 75
 DF 0A C8 FB 2E BC 62 31 B2 2C 99 54 BA 41 22 9C
 EA B0 F5 42 E9 76 43 1D 6C 7C 8C 26 24 75 96 ED
 B6 6E 7D 1E 7E 44 88 0E 46 59 16 06 86 B3 EA 30
 39 B1 33 26 9C 69 2C 28 C6 EF B3 21 15 9D 1C A9
 B0 9B 99 5B 9C 38 16 76 27 38 E5 FD BD 07 DD B9
 AA DC 70 DD 7B A9 B0 A2 ED 46 74 65 7C 1B 7F 68
 90 6B 4D 5B 4C D6 92 ED 8A 8E 9F 6A 21 7B 95 29
 55 1C 86 E3 E3 F5 DB 7C 94 65 9E FA D7 C2 26 87
 27 EF E6 A8 82 65 A5 9B C3 D7 1D C0 BB F2 6A E8
 F3 3B 5C 3F 43 A1 F5 6A 14 A4 EE E7 B4 EB EC 54
 3C CA A4 BA BA F0 8F 0E 5B 18 FC 6D FC 1A D9 0F
 F7 EA 44 E2 6A CD 9C B1 FD A1 E7 D6 F8 C0 65 DB
 7B 8F 61 64 4E 74 67 04 E1 54 FC 62 00 E1 8E A2
 D5 01 AD 33 A3 38 7E B6 F3 96 F4 BE F0 1C A5 F5
 BD 78 8B 6C A3 16 FC 3D 67 8B 50 5C E0 5A C2 E3
 45 09 A8 E3 B6 5F 94 5A 3A 59 DA EF A5 F4 15 FF
 AB C9 C6 A6 AC 7E 2D 6B 2A CF 4C 46 EF D3 39 43
 A1 B0 E8 03 55 90 EF FF 8C 0C 99 ED 75 47 7E 20
 2A 6C 9F 86 94 49 1E CC B2 7E 61 65 AA BC 1A D4
 63 F7 44 79 54 AD E3 96 EE B8 84 AC 9D E7 4A 00
 35 A8 54 3D 49 9A 02 E0 C2 41 6E C9 54 8A 07 A2
 75 AC 10 F3 63 30 EC 6A 04 E8 1D EB 4A 33 25 41
 63 47 F1 C1 6D 58 74 1F B6 F1 2A E1 0A 52 68 94
 3C 44 C5 30 5C FA 4D 79 D4 47 53 48 46 FF DC 35
 7F 4B 32 F1 97 83 0D 80 7D 1C 78 F4 3C B9 E9 E8
 B0 EF C3 23 42 F8 A5 64 F6 D5 D4 A0 5A A7 DD 4A
 5B 8C 21 39 5C 57 7C CD DF C3 4D 11 94 AD 53 D1
 6C 79 5E F7 F2 DD FF 80 86 C8 F1 F1 5E DF DB E4
 12 F8 F2 DF 8E DE A2 DE 15 0E A2 56 2B 3A 95 C5
 6C 73 94 90 34 28 F9 33 E6 CC CB 01 5F 87 16 80
 01 D4 DE D8 16 75 2F C1 73 00 A9 11 C8 28 2B 45
 1A 73 55 F3 0C FD D8 C4 49 B6 87 0D 86 51 96 CE
 B6 84 96 F9 E8 77 81 04 B1 A5 01 E4 ED 49 7C BA
 5B 4F AE 19 FD DE 67 14 37 27 05 58 C9 34 93 CD
 4E E5 27 2B EE EC A7 C8 2C E2 7B 05 54 F7 45 3F
 24 D0 BA 09 1F 88 CA FF 1F 09 07 F6 FD 6D 61 4A
 E9 3F 9C 7F 7A 3B 2D 84 A1 45 94 07 30 04 6E 5A
 D3 28 24 E7 A0 DC 98 47 F5 05 C8 6D E4 69 2A B2
 36 61 62 03 31 6F F4 82 47 75 69 12 4E AB 74 B6
 56 96 BF 60 C6 31 F9 4C 2B 88 98 9F 0D B5 7B 28
 48 88 7E D5 61 6D 83 74 2E 0F 94 1C DE 62 9E 29
 4B D7 93 A6 D9 17 86 82 38 64 82 68 40 97 35 7A
 A8 80 81 92 E8 35 AD C4 49 F1 57 5E B5 25 F2 FE
 E6 B2 04 6C 68 A6 6C 5E F0 44 D1 13 5C C1 42 E5
 76 F3 04 DA 4D CD F8 12 25 B3 F2 54 1A D1 58 2A
 4B 4B 06 50 55 F5 E4 F6 B2 9A 6A 3A 10 37 2E 0F
 57 11 69 3F 82 B1 F5 D3 7D 0A 6A 60 D8 E2 E2 08
 EA BC F1 41 85 B4 F7 6A 3D E2 EC 94 3B 1C 31 EF
 32 D1 C0 24 A9 6E 6D 7D 34 D8 AA EA 4F 98 09 52
 2E 30 9C 4E 29 4F 72 E2 2D 1C 45 D1 2E 80 15 78
 34 42 0D CD 3D 56 2A BA 99 49 33 F0 2A 2F 4E 4D
 FF BE 15 F8 A7 A4 6A 0A A4 08 20 66 A3 72 D0 7B
 E1 90 D7 A1 3F 27 E1 FA 88 57 76 AB FB CC 51 99
 B1 55 CB 64 54 F7 9A C2 42 29 32 58 98 C9 B3 7E
 5D B5 E8 2E BC 84 DF 60 8D DB AC 6B 7A 82 AD 9E
 A2 F7 F5 5E B6 D5 05 C5 DD 90 46 8F 40 F2 0C 04
 40 75 D5 DF 02 58 1C 41 0D 42 FD 56 50 BF A9 DE
 DE B8 91 8F BF 94 E1 92 52 A5 4E 9A 7B B2 7C 92
 D6 2F 6B 4C A7 C2 BF 1F 5E EA DC AD 27 72 AB 05
 C1 66 F2 61 97 A1 30 3E C9 07 E8 72 55 2A 39 52
 0C 35 DC FA F8 4D 73 29 B1 D9 00 BF B1 7E 09 F9
 1B 80 57 5F 23 E8 AC 3F 42 B9 9B 83 C1 9F 5C A1
 BD 2C DB 07 59 6A AB C8 60 C1 C0 E1 DA A4 5C CD
 CD B6 1D 52 3B B9 16 EA 5A 18 8D 1F 83 38 53 79
 27 4B 3F 01 02 3E 0C 17 41 C8 CA 5B 62 B8 A9 B5
 11 66 B4 18 24 E0 A0 71 76 CC 67 FE 32 0B 5D 24
 0A B3 06 0B 7B FA 30 0E 77 EB B1 54 6F D8 51 AC
 B8 BB 0B FD 6F 2B 16 E8 6F 98 BA 83 60 C4 D3 4F
 61 AD 3D 66 AF 88 4E 4E 73 44 87 59 46 F5 73 31
 40 39 0C BD 4F AF 6C 02 00 63 FA 27 88 20 F0 76
 53 27 B2 83 1C 70 E5 E0 86 1C AF 4B FB EE F9 33
 3A 35 37 AA 78 CB 64 35 37 38 CE 28 8E 03 AB 5C
 FE B8 A3 08 43 0F 80 BD 78 F1 90 A4 AC C2 CC CF
 F7 30 D4 0C B9 8A 6B 76 1E FB B7 0C 0F 80 81 05
 D1 16 CA CB AF E0 B3 0F C9 86 09 14 65 67 3D 97
 13 03 3C F3 D3 33 24 9C 6E 4A 7D 9F 30 63 17 F4
 EA 8F 0E 28 C5 B4 33 B3 1D E7 4D 14 B4 46 5F 45
 41 CB BC CD DD 3F 43 E3 69 91 ED 1B F0 FA 70 60
 42 3E 53 AB 93 50 D5 F7 85 0A 66 3E 8A D8 B0 09
 A9 46 7E E6 2B BD 2E 6D 8C F4 DF 5A 3B 3C 37 84
 A9 A9 4F 76 57 C6 59 8F 26 EE C4 3B 9E F9 EE 87
 24 59 45 90 35 AD 56 0C D0 79 52 2E 3C 8B 3B E9
 84 4D 27 18 99 61 FF 21 07 72 B3 8E 03 0A B6 17
 13 4D 27 08 50 DA 30 20 BE 34 9B 3F 44 43 D5 42
 DF 7D B2 94 4E BD 47 59 74 CB 78 1A CA 6D 03 1F
 AE 6D 82 FB 88 74 12 00 A5 3A 8C 0A 4A 62 70 B8
 66 EC 09 1D 0F 6A E2 B6 2F 6D A0 F7 CE 48 6E 84
 0F 2B CE B1 5E CC D5 B4 B5 AE 6B F7 03 14 FE 07
 AB 4E 1D E2 23 6B C2 99 F7 93 F8 4A 2F 7A 8A 12
 C3 12 42 B5 4E FA 33 C9 D1 98 E7 43 D9 58 DD CB
 59 77 D9 D2 96 BD 1F A4 16 DC 06 64 51 97 A6 91
 49 45 46 4D A9 B5 C1 2B 37 29 9A 59 9F 54 49 7A
 1F 17 83 B8 3D FD AE 23 FA 88 83 54 82 82 C4 1D
 90 E3 20 42 7A 21 EB 97 74 52 F6 F9 80 E9 8D F4
 25 57 70 1A 7C 03 10 D0 36 CF 6D 4F 45 62 48 67
 3A B1 0C 80 66 A2 89 D3 8C 3C 9E A6 53 B1 FC 04
 38 BF A2 ED EB E7 90 8F E9 8C 7B C4 3E 8B 5A 45
 CD 6B D0 04 33 4D F8 7E CA FD 27 8E D3 C7 0E AD
 FE 45 D4 76 B8 70 39 0A 1D 38 DC 12 45 39 78 D7
 22 50 5E 3D B7 8B 27 02 C0 44 03 18 0D 61 30 88
 0C 48 3F 9F F1 06 61 5A 4F 5C 7D 34 72 A6 4E 3F
 D5 8C 0F E3 E5 F0 DE 5F B5 90 27 B4 32 CB 9E F8
 31 5A D6 CE 26 C3 4C 3C FE A6 F4 1F 16 A8 6C 4E
 01 5C 7E AC EA 5E 97 87 26 29 35 9A 46 AE 62 59
 0D C8 13 04 3E 2E 43 19 9A F6 FB FB D6 C6 40 DE
 34 19 9B 07 0B 38 F7 D8 6A 8F F9 99 A4 77 1D 1B
 D9 C6 EA B8 82 93 8C B2 CA D2 7C 24 F5 60 2A 31
 B1 09 56 CF 22 D1 71 CC 51 FA AE 22 55 42 8A C9
 4B 5E 0A A1 95 1C 07 14 4C 19 3D 99 52 AF F9 DB
 9B 82 4A DD B7 C4 30 AB CF 03 C1 56 B2 5E A8 9D
 A4 DC 71 DA 96 DB 37 D0 42 B5 DD E9 86 CB 0E 16
 C4 76 88 20 80 F1 69 6D 78 6B 2F C1 FA E4 22 A9
 0C 4E F9 92 95 8D BC E5 70 4F DE 71 FB 4F A2 F9
 00 B2 E3 6C 66 03 F3 E6 1F 8C 8D 4B 6C 3A 87 14
 C5 F4 2B B7 89 9A 06 01 C1 A9 45 BF AC D1 8B FE
 43 D8 34 65 46 3C 9E 83 47 5F C8 C6 18 FD 50 D3
 86 5D DD 61 49 2F E5 73 36 FA BF 85 F8 1F D9 A3
 8A C9 BA 68 FC 96 30 CA 84 40 BE 4A F4 D2 3F C5
 0A 4D 7B DD D2 EF FC EF 5E 08 D6 EB 36 07 36 AB
 AA 71 45 98 3B 6A 62 4C 03 05 36 C7 26 53 AB 80
 E3 40 09 B0 0D 40 68 55 5B E6 3D C5 A2 78 9A 59
 4D AF 3E B3 BD 61 A0 23 A8 CE E0 98 C5 71 83 AB
 A8 4D 02 4D 4C 8E 0D F6 11 7D A3 54 B2 6B DA A2
 C9 97 10 26 9B B9 8E 2E 71 F4 A6 7A F1 E3 64 DD
 AE 3E 42 03 A6 4A A0 9A 04 C9 4C E5 50 9B 25 FD
 C8 42 40 2A 4F 03 B0 55 CD DB 09 13 AE 2D A7 D1
 C0 8D D8 57 60 6E 48 B1 0E CA F8 D4 4E 7E 42 6B
 3E 59 AD DF A4 80 47 5C BC D9 B8 70 A0 13 74 B7
 0B E1 FC ED 79 0D 43 1E 0C A6 6E 8D 85 B7 8C 34
 02 18 96 70 09 28 D2 DD 93 0C F3 DD AC AD 0C C5
 48 C8 8F C9 B9 B7 73 81 A6 EF 6E 6C EF 78 95 E1
 9D 80 20 8C 22 2C 59 0B A9 0C 7D E8 40 88 D8 FB
 7F 1E 44 8B 64 EB EC F6 77 7F AC 93 8A 90 1D 31
 0D 4C 1F C5 FC C9 2E 11 A9 CB CE 94 71 69 32 28
 E3 6E 6C 5B C1 4C 63 05 7E 42 F0 BD 01 F5 5C DC
 27 5C 33 2C 9C B8 41 F8 43 81 4B 3F C7 D6 45 D2
 D5 A9 69 0F C4 73 2C 8F 48 45 01 AC FC EA A4 E6
 1C 25 C7 D4 3A E8 8E AE 15 92 A2 1B 3D 36 DA 8C
 18 71 67 14 8F 24 73 98
* End 1707471274 898428235