* LTspice Encrypted File
* 
* This encrypted file has been supplied by a 3rd
* party vendor that does not wish to publicize
* the technology used to implement this library.
* 
* Permission is granted to use this file for
* simulations but not to reverse engineer its
* contents.
* 
* Begin:
 CE 42 4D D9 14 F6 E9 13 A8 91 CB 40 D0 24 51 73
 73 6D 65 1C 20 39 FC 7B 94 64 E8 46 98 59 05 51
 42 22 F5 23 D2 05 AC 85 AD ED 5E 6C 40 62 8D 14
 09 E6 8B E5 61 07 1B 4C EC 2D B8 40 EB 94 C6 FB
 88 9C 80 8A 9E 91 1D 3D C8 90 F3 FD 0A 61 9D 22
 15 A3 FD 6A 5E 91 69 DD 33 DD B1 FB 43 70 2B 92
 1C AB FE 04 0C 1B 59 44 E2 30 48 1D 1F 1B D4 E3
 8B 91 BC FC 71 D6 D1 59 80 DF DF B5 CB 86 78 4A
 9A 2C 39 9C CF 87 E5 28 78 BE EB 93 85 5A D2 6C
 07 62 F6 E2 56 F3 C3 B6 77 A9 B6 97 0E 15 53 21
 22 E3 B3 87 D7 0E 03 9D B3 82 26 9B D2 06 68 77
 B2 8D 0A 50 57 EC A3 25 13 F0 EA 2A FF E0 D2 B1
 90 CE 6B 17 31 D9 F2 DE 65 40 BF E2 24 57 48 6C
 4C AF F5 11 D7 12 B5 28 83 FD C3 11 C5 34 60 40
 BC 12 19 72 13 1C F9 00 F1 6E AD 3E 3A 27 35 45
 C8 F3 F0 BE 82 23 77 50 AA 7A 0D 79 B0 8B EB 09
 E9 CC D3 B4 C5 A1 88 FE 8D 0E 2F 18 45 4C 26 D2
 7F 2D 3F 6E 2B A1 C2 F4 0B D5 25 4A 9A 4D 43 1A
 E8 47 07 63 D8 01 F5 50 22 CC 45 CF 96 BA DC BF
 28 80 0D 0A D2 68 09 E1 12 E9 97 95 31 D6 89 B5
 22 88 7F 8A CE 65 5D D6 96 10 E1 B4 04 F0 A8 FE
 FD F7 6B DB 05 DF 2B 0F 07 8E D7 8B 5C C5 F8 14
 26 5F 80 6B 0A 4A E0 60 E4 CA 04 D5 0B 7C 1F 44
 BC FA C7 7E 6E 56 F2 6B 34 AE A4 EF D4 39 F4 B8
 31 D1 EE 3C 23 0F AA AA DA 70 28 25 96 CB FD DB
 94 88 1D CD 19 92 64 01 55 42 28 6C 4E 1A C9 4E
 AF A4 EE D9 51 F6 B1 76 2A AF 07 5E 73 EA ED D8
 E5 6C 2A 64 3D 01 08 F0 B2 67 9E 63 27 E6 3A 0D
 74 D9 08 8B B9 02 0A 42 DF A0 76 C3 11 49 D4 FA
 CC DF 9A 8F 1C 42 E1 EB 4D F3 6D E0 17 C7 A0 B2
 1D 77 FF 12 28 06 88 88 E1 86 8D 75 16 95 5C 78
 4A 3D FA 26 F8 15 F1 A0 BE DE C9 D1 73 3D BD 52
 1B 91 B3 68 3E 13 43 F9 CB 13 CF 57 E6 D1 26 11
 5D 12 93 05 C3 8E F7 76 6F 41 C3 98 E2 58 95 55
 91 65 C3 2C 88 F7 81 37 FA EC 97 29 C3 95 65 42
 71 2F CC 99 30 44 68 42 15 66 0A 92 8A FC 31 AD
 39 A0 02 CB 32 CC 59 3A F6 F2 81 9D 99 F2 FB C5
 55 12 C3 AB 32 25 45 BC 3D FB F0 83 EF BD 65 3E
 95 67 62 5D D9 4D 46 80 5A 5D 24 A3 4A 2F B4 FE
 E0 2B 31 88 76 E3 48 F6 51 F0 D9 27 4F D9 9A DD
 B0 5C 70 6E 1E C5 DF 01 19 0C FE 6E B1 33 9B 5C
 F7 9A EF 79 D2 E8 BD AE C3 CD C5 62 95 FA 88 4B
 A7 E2 DC EE 22 A7 4D EC AF AD 9D 6B EF 2B DC F3
 07 59 44 60 55 F8 DE 66 05 29 82 DA CF 4D 79 D2
 41 B8 35 F1 AC 66 FB FF BE 75 31 43 70 60 06 81
 DC 06 F7 87 C4 77 2B A9 F8 F3 E6 94 0A 5C 0F 62
 EA FF B5 C9 1B 3F 51 48 F1 A2 65 72 FA CA EC 25
 16 A8 DC A0 B6 F8 F5 F8 50 29 D6 8F 57 BA 61 D0
 E1 40 CE FD 2A 8B 32 B6 34 BF 71 D6 45 E3 94 E0
 2F 07 B2 15 2F B4 66 42 0B 5E AF 3B 29 5D 34 5C
 99 9F 16 AC 1C A3 7C 75 91 AA 18 C4 86 48 F6 35
 FB 5A A0 30 B9 D2 4C 8F EE 59 27 CA EE F7 98 09
 6E 5B 58 BE 46 CD 9F 03 57 D7 E6 20 AD 96 5B F9
 3D E0 0A AE A4 C8 D1 96 35 B0 76 CB F7 FE BC CA
 69 FE 25 06 97 D4 F6 93 C4 45 85 3F DF 3B F4 94
 A2 E9 FD 45 BF 8C 98 15 8C 0F 72 41 A6 45 FA 1C
 EB BA CE 69 08 F4 20 AD 90 E8 F7 EE 80 66 23 3E
 65 82 0C 8B D0 D5 D0 96 7A 94 63 DB 37 8B 40 EB
 9A 77 F6 E9 10 43 23 52 AF 47 99 2E 28 35 80 C8
 14 8C F1 4A DC B3 F4 A2 73 76 10 9A 67 44 8D EE
 D5 4A 12 E4 66 0A 11 0C 96 9C F2 0E EB 9A 62 2C
 81 3C 65 63 B6 76 B4 2F E1 49 7A C6 7E E5 DE FC
 27 91 A8 BD AF 53 19 F7 E0 E0 FA D4 62 98 63 79
 97 E0 C3 35 5C 35 8C 3F 3D 0E 48 3C C1 97 B1 8C
 05 2C BD 64 C6 FC E9 E6 B2 AF 7D 70 D3 64 78 13
 45 E3 B9 B4 12 8A 68 A5 11 3C 3E 2D FB 8E FA D7
 FB 43 D6 D3 84 0E 17 81 75 93 BD 87 CF BB 87 CC
 16 AC 98 AE 09 E4 5B 0F E1 BE DF A1 54 B9 A7 14
 E6 B9 79 DB 0A 85 88 EE 0B D1 D2 BB 97 24 10 00
 51 BE 37 16 20 55 5B 4A 71 10 5A F0 09 34 83 23
 3A 44 BC 4A 24 1E B2 78 C9 1B 06 FA 75 5A 33 6B
 80 C8 25 2A 86 C1 67 B8 3C 57 AE FA 53 F0 73 62
 CB 58 23 38 1D 90 32 57 B4 18 D0 8D 15 5D 78 3A
 74 D2 54 FE 08 FD 07 2C 9F 11 00 19 72 F0 16 20
 D2 06 9A 98 DF ED 79 F6 1A B2 1B FB 7F 7D E6 5E
 3E 4D 6D 48 37 76 4C 12 FC AB 1B 1B 48 3A A8 76
 17 1D CC 6B F7 CD F8 F4 82 C8 8F 08 19 B4 A8 CB
 C0 5B 1C F6 F0 03 E1 11 FD E3 84 59 41 C2 F4 49
 A2 43 41 7A 02 7C D4 5C 08 85 D3 1E FA DE 82 5C
 EF 7A 34 E8 2D C4 89 91 B3 3E 60 DD 7C 5C 8E 71
 64 2A E0 09 79 0B 08 D9 10 FE 0C 56 F8 E9 CC E4
 8A 9F D0 81 0A 39 B2 2E A5 ED EA AF B1 51 08 AE
 BE 2A 67 3D 16 41 3B 1B D3 ED B9 A9 5C E8 AE 62
 D2 4A 4A 28 32 80 CD 72 F6 AC 61 16 A4 F9 64 35
 1C 68 37 5D 35 CB 8D D8 06 A9 5E 86 21 AB 99 97
 16 EE 3C B8 02 0F 65 71 A7 50 BF CD E0 FA C6 D3
 72 ED E3 B9 8F 97 B9 43 0B 45 70 E9 15 12 51 30
 85 6C 34 9E C2 EF 61 EA 15 7C F8 CB DD 4B 08 FE
 C7 32 21 50 D0 92 0D 24 32 86 B3 23 68 7E 01 35
 DD FD 47 D3 F8 20 85 3D C6 C3 8B 93 B2 FB C1 E1
 D7 B8 FF 67 BC 47 A2 FC 0D 27 B0 69 1C C2 EA 7F
 5E CB 09 6F 83 6E CB 10 2F D8 97 CF 2C 32 10 48
 C5 41 1E FC 44 69 D2 36 92 78 34 38 D1 5E 5B 56
 9D 8B 87 85 52 11 63 21 39 73 24 F2 EE 7C 77 58
 CF 48 F2 F0 AB 8B 87 F3 D4 B0 46 CF FE FD 50 CF
 EE EF 7C F7 05 64 30 B0 4D 08 91 2D 9A 96 B2 5B
 91 F2 90 F4 8D 53 24 CF BD AE 18 A5 1A 4F 9C 66
 8B 9C 98 2E 4E 5E EF 97 08 43 61 66 FF 41 81 01
 59 66 31 A1 0E 29 0D 36 5C 2B 73 0E 33 78 B8 C5
 3E 6B 90 FC 12 9F A0 C5 E5 73 53 0D 0D 41 CE E6
 4C 45 90 BA 54 A9 F9 D8 F2 C8 42 41 6C A1 74 F1
 5C 19 D8 2F 97 E9 FD 30 49 C8 5B B2 94 B5 A7 D3
 62 B6 8A 12 23 44 EA 99 7A 0B A1 FC 0E 3F 55 C2
 CE 25 CB 10 B8 5E 62 F5 A2 9C 60 67 AE EB 99 8A
 44 1D 72 9B 14 26 DC 58 34 51 10 87 FB A2 6A F8
 61 9E 10 74 FE EA D5 C6 E9 4E 97 77 0B 65 E0 2E
 68 C6 F8 81 17 AF C0 A2 A3 9B 19 9B 03 9A 6B 2A
 2F CC 3F E2 6E EF 35 AA C0 0B 7C 8B 33 EF 0F D4
 C0 B0 E0 BF 1B 4B A3 74 E3 AA D5 6C AA 4D 35 BE
 1C 14 8F D7 3E AE 71 6E B0 1F 5B 24 82 36 16 E4
 2E 3E 2B B6 8E 16 CA 7B B9 A9 4C 40 22 D1 6F 38
 B4 3C 02 93 16 4D 63 44 94 B4 DC 6A CC 90 BB 96
 50 04 E7 34 D9 BA 3C F1 EE 9F 01 A1 1A 49 2D 16
 09 27 39 1E 4C 45 F1 C7 3B 51 58 B5 0F 87 DD 74
 88 B0 E1 AE E0 C1 57 DC 38 28 76 22 07 E8 00 83
 E8 EF 1E 36 F6 F0 47 83 31 7F 36 D4 64 72 37 AE
 CB 82 38 2E BC AD 9C AD 43 0E 55 18 70 05 20 8D
 BF 69 51 76 A2 DD 47 A1 32 57 A3 99 68 4E 4F 1C
 65 43 71 A4 DE 47 AD 4C 67 26 0C 98 E5 70 CD 56
 B8 5A 41 8E 76 70 51 0D D7 6B 56 ED F5 B4 DF BB
 63 CB 45 DF 23 8C 17 28 E4 1E 63 6A E7 88 F5 8E
 B9 92 E1 4F AF 1C 2D A8 82 55 D6 0F 46 40 B2 2A
 AB 30 02 7B BC 2C F6 5C B4 97 3F 32 D8 4A 1B EE
 BD 55 47 10 97 DF 39 43 58 99 33 7D 6F AF C4 F0
 EF B1 75 22 6A 42 11 94 66 0B 73 51 68 EA 07 2C
 11 37 F0 4D 44 B6 33 71 52 CC 21 74 92 83 55 7D
 FA 3C 46 C2 34 4D CA 6E E3 A9 63 3F FF 2A 2A 85
 7D C8 C1 EE C9 F9 3D A0 5E 8D EF 14 D5 FC 4C DD
 37 24 C2 12 0A C0 E1 C3 19 89 D7 9A 9C CD E6 2A
 D4 D6 1E A0 14 22 F8 C2 FE E5 AD 92 99 41 41 B7
 2C 51 6C 84 49 B4 35 DD C9 7D A4 C6 FF 98 74 FD
 6A 6B F3 68 EA BB 80 1C D5 C9 A0 CA 94 79 0E 14
 98 A7 2B 37 18 4D B3 07 A5 19 29 7C 32 EE 91 22
 F0 46 A6 AB 28 BA 1A 18 23 2C 8A 63 0F 6F 60 C0
 91 3C 50 3B E7 1C 5D A7 15 64 3E BC 3B A7 6D 26
 C9 46 12 A0 24 A4 75 8D 3A 8D A9 97 4A DC DB 5E
 F0 16 22 2F F5 EB 2C 7F 70 31 61 DF F1 DB C8 23
 1C AC C2 0B 1B 4D 8F 86 B3 87 5B 81 2F E3 2B 3A
 C7 85 5E 21 EF C8 F3 CC 38 D1 ED 60 6C 21 94 21
 32 E2 E6 08 0A 2F 49 2D 64 D5 37 D7 96 1E E4 AB
 7B 34 39 73 0C 34 C1 78 16 40 F1 D3 33 8B E5 61
 17 9D F7 ED 40 CC 55 32 BD DB C2 2E AA B3 58 79
 49 64 36 60 14 9A 86 EF 17 C9 A5 0D 6F 30 F7 3E
 F1 13 8B D4 F6 AD CA 05 6F CD 38 9E EF EB 04 51
 62 14 E0 E2 57 15 29 CB E5 03 C4 21 CF A1 99 43
 A6 FF 95 79 CA E2 C4 F1 D0 8E B9 AB 12 05 51 93
 B3 BA 4B 68 7A 22 A0 B0 2F 2C 50 58 49 D9 DC 17
 75 2A 93 D5 EB C2 BC 0C B2 5F A7 BD 09 49 08 8D
 FB E1 10 5E EB 13 A2 25 67 54 70 BF 02 CD 02 6B
 71 AA 49 3C 6A C0 BA C9 40 46 10 91 34 13 21 0A
 0C 0E F6 35 E8 C6 B9 3D 76 C0 82 6A D8 A4 AA 9E
 5F 32 7A 8F 00 0B D7 D4 47 98 F7 1F 3A AF 72 09
 E8 A2 DA 6A 1F DD C3 35 C7 2A 5F 47 9D B3 B7 41
 D3 91 4F 75 F9 43 58 31 8F C7 FA 0A FA 14 A4 5D
 5D C9 B9 88 1E C3 07 4F E8 87 66 99 CF 5B A1 95
 23 31 0F 88 54 60 93 2D 8D AC F8 DD 00 1D 60 79
 04 B5 A8 86 7A 49 DD C3 01 7C F2 DF 02 F9 0E D0
 D7 78 D4 F8 EC D8 3B 15 36 30 06 C1 D0 5B BF EB
 07 F3 78 5F BB B6 42 5A 77 67 38 06 16 31 A4 A8
 38 2A A4 57 89 F8 24 39 2B E3 F3 22 D4 F2 9D C5
 2F 03 D7 C2 20 04 E1 A6 92 18 FE 1D 1E CA 0E C1
 6A A5 7B 4F 8F 0C F7 75 37 96 27 C8 57 0F FD 3A
 47 31 7F FC 33 62 66 C9 CA E4 F4 3B FA 63 A6 1D
 F7 F1 D6 FD 61 06 A9 E7 C6 6C D2 91 31 AE 1C 05
 58 CC EE F9 22 88 E3 3C 75 73 DC 8C 96 FB 6E 0D
 B7 11 3D 92 F1 FE 2D 45 BA E9 6B FB C4 3C 0A 64
 FD 11 93 94 64 F6 E3 19 C4 5F A1 44 AF D3 E4 59
 66 AD 56 B7 46 64 1E CC 22 5C E8 BF AE 62 37 4D
 5D 3C 9B 3B D6 74 7D E9 A3 14 F5 65 74 6D 76 82
 05 F9 E0 D9 84 32 66 F1 58 0F 64 73 AD 6E E3 47
 54 D4 58 06 D9 24 C5 0C C3 D3 05 52 87 DA 19 35
 00 C6 16 22 17 CF F4 3D B6 06 61 A7 6B 00 76 AD
 64 69 4B 43 BB D3 05 05 39 0B CD C6 11 46 04 CA
 1D FE 6F 93 70 25 74 AF CE 6C 89 E9 E0 CE 42 5C
 D4 C8 89 7E 4A 07 46 FB 88 43 33 9C D2 F1 AE 95
 95 71 5B 02 1E 96 8B 3B 30 D9 72 1D 77 53 1F 91
 E8 AB FD 2D F2 AD 84 E6 A1 DC E1 23 59 56 14 E1
 CA F0 0E 0B 42 92 AC 71 16 F2 1D 39 CC D1 C6 DC
 B1 3C A6 6B 1F DE B5 BC FE 57 1C 70 84 67 43 AF
 DE 85 5A 84 E8 58 03 A2 D5 FE F0 53 15 F9 12 D1
 33 E9 04 FD D3 BC CA 44 24 CF 0A 51 9D CA 35 93
 6A 7F 41 1C 0E E5 17 59 F0 74 1D E6 B0 5C D3 06
 CD B1 BC 5F 38 15 BE 5A 6A A1 05 F4 3B 04 90 13
 6E A6 65 D9 EC 78 26 2B 8B 8C 96 CB 90 23 29 6A
 36 1A B6 6C 15 A0 FF 9C 6F 02 20 22 75 81 E3 43
 6B 58 66 BB 1E 65 17 01 98 9C A4 86 95 BC 53 F2
 F0 91 0F E0 3D 61 73 25 3A 3F 28 3F 3A 5F 8D 73
 59 65 CE AD 28 33 97 76 9C F0 FA 0E E9 21 23 CA
 B8 5A 70 FE BC 1E F7 03 25 D8 18 5E 2B 4B 4D 37
 51 40 52 26 AD B6 02 63 CA FD 1F 11 12 A0 8E 8D
 AD 04 7F 60 07 9D 18 7E 59 6D 29 3D 85 A7 5E A3
 99 EC 9F CA EB CB 27 BC F2 1D 95 EE 72 28 F7 F0
 AA 65 93 BF 52 7B 85 45 80 9A 25 BB E1 18 13 61
 E3 D8 79 E6 1B 5E 42 F0 61 6A 74 12 A0 3C B4 FF
 04 38 D7 5C 9F 16 AB A3 F8 DF C5 2B FC 67 4D C5
 7F CE 92 43 20 6E 1B 47 4E 0A A6 58 BE 13 04 91
 6D F2 0B 0B 13 E3 8D C4 F4 58 B2 5C 5E 34 D2 00
 44 80 15 1B 92 77 5F 5A DC 54 73 D2 91 5F 55 F4
 B1 A0 4A 59 03 C3 60 13 64 B9 DD 77 73 3F F3 2D
 3E EB 8C 7B 8B 19 92 E2 C8 AA C2 C1 7A FD 44 08
 1F 1D F9 6D E6 C9 41 7E 0B 63 03 2B BE 03 AD EE
 E2 EC A1 C3 F2 F9 65 69 1D FF B5 FA F4 4E C9 48
 2B 98 21 EA 8A AA BE 1A 30 79 F3 87 EA B6 87 CC
 8F 9B 0D F6 1B 2E 84 BC 30 7C 3E DF CC 02 FA 5C
 D5 C6 12 46 F3 46 22 D8 54 27 7C B3 FB 18 9A 25
 03 AD 9C 28 72 E3 9F A1 B8 BD 3D E7 F1 A3 42 5F
 B0 26 14 32 29 E8 1E 28 B6 F2 D9 E1 9B E3 E4 82
 FA CE 7D 9E 9C D4 1A BA A6 6B D9 77 A9 51 F2 F6
 9C 6D 7B B2 62 27 1A D0 FF 16 3E BA C9 32 F2 05
 96 37 50 54 14 A5 C7 B8 AB 0E FB 8A 59 66 AC 89
 3B 2D E1 37 28 D0 65 BB 1B C9 E0 4A C4 96 8E 30
 23 88 26 3A FA D8 93 68 25 DA AC 2B C8 3F 87 AA
 6C 47 74 A0 C6 E3 21 08 D0 B5 11 D2 33 13 66 2F
 3C 29 12 2D 51 46 D6 0E 64 A7 1C 2E 03 77 A3 E7
 D0 D5 90 42 03 9F 63 0F 50 EF 10 7D 4F 6C 36 C3
 64 EE 06 53 CF F8 7E A2 47 4D AA A0 E8 FF 7C B8
 29 CF 6B 38 60 63 45 3D 07 67 B8 E6 6E 47 FD C0
 ED 1D A9 CC 66 03 76 E5 0C 61 39 C6 67 BE 7C 56
 9F DE AF B4 48 83 5F 4E 8B 40 05 88 C1 3A 81 F9
 E1 12 C7 B1 5D 7B D6 60 52 34 E6 5B 34 F6 54 38
 42 8A CB 2E 38 91 8F BE B6 54 F5 3D 9E 43 EF 9F
 C0 8B 54 B4 58 E9 B5 6C DC FA 2E 75 E9 76 6B ED
 12 65 14 D5 1B 47 7B A6 03 C1 C7 CF 6C FE B4 D8
 16 F6 CB 09 EA A8 1C 3C 28 AA A3 DD BE B9 86 63
 4C 93 0B D1 12 28 CF 08 7B 1F 30 BF E0 46 1F 5A
 50 1F DB 48 63 A6 36 4B 44 FB 3B 94 22 F4 3E 63
 CB 1E 8B 08 D6 BE A1 1F 67 14 C8 18 93 9C C9 BD
 C4 02 18 4D 28 46 D4 B7 E0 ED 65 55 A7 B7 17 3B
 E7 46 DE 46 F9 19 28 4F 62 A0 86 FD CB 76 89 B9
 4C DD 3A F1 3C 55 44 04 F0 6C 2C E0 F0 BA E3 F8
 EF 55 E3 B7 A4 7C CD 5E C7 BA 6F 69 40 71 AA 4C
 F9 47 08 9C C8 B3 4B 9D 9E D5 10 6E 4C 45 1C EE
 07 A7 6C C2 98 65 7B 49 4D 32 2A 0C 3D 59 49 BA
 87 77 89 72 C8 BD D9 F9 CD 24 08 41 8B E3 27 4D
 A3 C0 7A B3 44 99 82 2B 7E F2 0B FC 71 E9 E9 56
 C5 B2 5F A8 1B C8 7C 32 0D 72 0D A3 73 A2 0D 28
 15 C5 BB A1 63 FD F6 0E 79 CD EA ED 49 D9 8A B7
 66 63 C0 E8 7E A5 23 07 F2 CB 7D 16 0F 19 40 B6
 EF 96 B8 38 BF D9 B5 FC D7 F4 32 9D 67 FE C0 14
 A8 B5 AE 8F CF 2D CD 6C DA 54 CD 3D 28 ED 75 2D
 65 C7 2D 60 C1 EF A8 15 9E 29 9A D6 AC ED 93 7F
 29 AE 86 E1 3F B7 1E 5E F9 19 47 83 0E A5 12 9C
 49 C5 1D 08 82 E2 1E 1B 57 1F 07 AF 93 2D 16 A3
 42 48 68 2B 4D BC 0B 94 03 3E 36 C3 2A B4 DA 61
 E5 4E 47 FF EA CE 7B 5D E1 52 02 35 EB C4 65 5F
 DF 7D 39 F5 29 2F 12 99 8D 04 E7 7A 82 05 E8 61
 60 3F ED 27 C8 50 A7 3B CE FD 66 F0 8B A7 34 AF
 4F A4 3F A3 9D 01 33 5C 4A D5 62 54 50 9D 20 43
 A4 AD 37 81 3A 9A 0B 3A 06 41 02 18 42 ED 23 4C
 39 77 2A 8C 8B 39 CB 45 FE CF 6D 97 C0 87 8A 83
 C4 99 0F 49 30 B0 E2 42 CA E9 D1 53 02 38 4A 10
 5B 4D AE B1 16 55 68 85 42 46 C4 8F 7E 01 7D 5D
 EE EE 25 23 01 CB EC 0A BB D8 8D 2D D2 29 32 E3
 71 33 2B D8 32 7E CF B0 00 75 A3 4D 5B D6 DD 5E
 85 6D 90 5E 3A 61 60 19 15 68 BF F0 FE 04 11 B7
 F1 6F C8 3B 05 17 E0 87 98 B2 8D 55 02 5F ED 6C
 75 1C 4A 43 24 B0 26 58 B9 40 2D DE 72 00 65 F1
 04 0A 7C 2E E0 C3 63 D7 9F 0B C7 2A 14 97 3F 40
 3D 17 78 0F 87 82 CC FF 46 A9 BC D1 70 2A 5B 7D
 0B FE B0 3F B3 45 1C F4 E3 90 EA F8 D4 7A 23 21
 0D EB 76 EA 92 0F 99 79 A8 16 83 A8 1D 65 C2 02
 89 A5 CD 12 4D 3F 09 75 DA 8E 3F AD 5A A8 5D A6
 9A 0C 03 B8 D0 A5 76 06 47 54 7C 40 F1 8C 24 D1
 1D 36 CB 6E 9F E7 57 03 9C E1 02 F7 18 E6 FE 24
 A5 17 D7 C1 0A 6E 53 18 01 D0 29 78 D0 7B E5 0A
 CF 5F 97 6A DA E0 CD 7D CF 3D F4 D2 82 47 A3 33
 2E B7 31 18 BD 2A DC E0 A8 CA CA 32 43 F1 7C 2B
 6B 2D 94 94 36 37 61 06 6F 11 5D 68 ED 74 86 26
 B7 05 5A F2 F4 3C C0 32 E2 AE 0A 6F D4 31 17 2F
 D0 0E D4 CC 8D 2F CC 00 C6 AE F2 9F 04 A5 59 65
 3A 16 12 32 01 EE 13 E0 A8 36 83 08 B0 CA C0 5F
 2C D3 DF 7C D7 C2 DB E6 5C 04 F4 3E A7 64 43 B5
 68 5E F4 59 08 C9 BA FA 9D B0 C3 95 09 5F 40 67
 C4 20 B0 59 F8 24 18 96 5C 6C 84 52 61 E7 96 07
 DC A6 C1 B1 16 C8 35 4B 9D 25 0B 9A BB 2F FE 31
 92 47 C4 A0 20 46 BF DC 2B D4 7A 8D E1 41 1E 4B
 8D 07 08 26 17 2D 1E 51 BE D9 D5 4A EB 29 EA 7F
 9D 8B 20 AD B4 D6 A1 4C B3 E3 7B EB FD 62 15 90
 E6 3E 6B B5 BF 20 23 3F 06 10 10 45 0E A8 B4 EA
 EB 40 B2 7D E1 3F 70 A8 1C 95 40 8E C1 99 DB F5
 DF 36 AE F4 14 BC 94 71 0D A5 C4 49 C9 53 E8 76
 5C 8F D9 91 C2 F5 06 BA 66 5C 38 8E 3F 46 8F DD
 CF 0D E5 4A 55 E9 27 8E 75 DE AC 16 43 BE EF 34
 C3 2F F5 72 D4 BC 8E BA B6 07 67 7B 5E DE 4F 71
 A9 34 8A 10 D8 37 9B 2D 73 68 CF 99 8F DC 6F 4A
 DF F6 E9 3B 26 28 35 CF E5 D5 CF 73 1E 9C AD 65
 2C 9D 00 37 50 C5 0E F2 3C 67 E4 E3 A7 AF DF AF
 AC 7A 2F 0D BB 5E 51 A7 2F 54 F6 5F 96 3A 46 64
 7E 47 AF 23 A8 B4 2B 28 0B D1 20 42 D7 A5 23 7F
 BD A4 A5 D2 E7 AF DA 1C B3 2A C9 BE 13 56 AE D7
 1B 96 F5 1D AC 61 0B AD 59 7F 0D EE 6B 57 1A 5D
 03 28 FC C5 25 47 06 6B 75 CA 3B 63 49 58 87 0F
 AF E0 04 AB 85 8C EE 7B 9D 66 33 62 59 67 99 80
 DE A2 20 5A CC EC E5 5E C0 EB 8B 6B 1D D8 AF FD
 61 F2 2C 0E 2A 2E AF 0D 63 D7 09 39 E9 2D C8 6C
 36 EA 49 6F CC 81 90 00 11 B8 DB 2D 0A 3B 88 C3
 3B 4B 39 E5 17 31 04 6E 0A BA 60 76 5E 5A A6 6E
 F4 C5 03 5F C2 0E 9B 3F 8A 8B D5 FC 1C 1F CB 31
 5D C6 90 08 91 FA 5A DE B9 02 B2 31 33 D0 74 F0
 F7 04 69 DF 5B 59 34 75 47 88 E0 BD A8 16 FF 3B
 AE 54 2D 6E F1 BE EE 23 6E BB FB 0B 6C 64 BD 7B
 0B 2B 28 B8 34 00 9D B1 A4 49 18 A8 41 A3 B5 6D
 1D B6 0B 33 AB B8 B1 5A A7 77 BD 16 74 C8 18 22
 5B 6F 59 06 EF 66 8E 38 44 7D D5 5E 84 CD EB 72
 C3 D7 C6 92 65 14 86 48 B1 4F 05 8C 4C 27 C4 B7
 56 15 2F B9 C7 1E 44 2B C7 B2 21 D3 A0 76 72 66
 81 89 4A B8 13 F2 41 5C 33 2B 23 FA 3D 10 64 D8
 87 B6 15 93 9A AA DB AB 7C 98 4F D6 1C 7E 64 05
 A9 68 F2 3B FC E0 0A 0F 6C 71 7A 9A 66 6D B5 53
 6F 36 38 34 99 4B 57 03 BF C1 E5 CE 5B 19 F9 78
 58 5A 13 DA 4D DE E5 AF 84 1B B7 64 BC 2F 04 CC
 50 85 8B 68 80 6B AE BC 50 88 A9 FE 80 7D 70 49
 7E 20 25 CD 4D CF 11 C0 CF 50 A3 8D 3B C0 B3 75
 06 B7 D3 A5 3F 0F AB F8 C4 97 FB 6D 68 1F 09 21
 0E A5 1A 2D FF 42 3C 86 97 58 77 62 5E E0 3E E9
 1B 64 CB 66 4D 1C 7C F4 E2 67 EB BB 06 3B A7 EF
 8C DF F4 C4 B9 0B C3 7C 05 9F 4B 2F EC DC 01 B6
 0B F8 72 3A FB 2A A4 27 04 85 F1 6A 75 08 B7 91
 DA B0 0B 6E F7 61 BD CA 9E 33 36 9E 30 EF BA 4B
 3F 01 17 59 16 77 EC FB 77 16 B0 B7 D7 6F 38 86
 E5 D8 D7 2A 77 DC 45 9C 40 E0 9C 18 5C 9E 06 E6
 6C F1 07 AF 76 20 C9 67 27 24 17 46 06 CA FE B2
 DC 33 30 FC 38 EF 05 1E 8D 03 BA 33 52 85 B3 6F
 5D C6 B6 41 0E EC 39 53 E2 08 B4 82 75 DE 09 18
 E8 02 D9 8E D4 FD 2F C9 49 31 7F 8F B7 44 CA EA
 FF C2 85 BD 37 73 52 E6 78 6B AE 45 22 AB FA 75
 41 C8 C6 CA 56 7E 4C 7B 5C 9D C6 84 5F 50 77 15
 2E 55 05 2B 3F 70 3E 84 F9 18 F6 24 38 F4 CD 8B
 59 DA B5 D2 FC EF 18 C6 AD F7 56 0C A0 94 98 6F
 2A 18 52 2E 33 CE BF 52 59 BB 7C CC 04 1E F7 59
 B7 7C BD E7 5E A5 0A FB BA 22 BA 0C 76 8D 5E BA
 93 43 30 78 F3 4B D9 6A 1F B8 9C 1F 42 2B 91 C0
 59 36 05 36 C4 6E 44 CE 52 0E EC 50 FC 35 6E 19
 2D 52 DC A6 89 12 0C 37 45 66 83 7C C9 97 E3 E9
 0F 8E 15 B2 6F 4A CC 7E 9E 68 64 83 78 13 B2 5F
 6D 43 E6 C8 8D C9 C1 D9 71 F3 4E 17 06 56 B5 FA
 93 5E AA 56 55 AF 20 72 CD F4 B3 EF 53 A2 BD 1B
 C5 57 C7 3E C2 2C 4A 54 04 08 5B 3E EF A0 66 E3
 05 D8 45 5A 21 53 AC 8D 7A 77 6F CC 61 AB 82 48
 FC 33 2F E6 AB 51 6E E7 1D AE 78 35 B1 A4 37 AE
 73 04 9B C1 EA 50 7D 89 15 CB 10 0F 04 40 95 AD
 3F 52 DA 32 F4 44 7A 44 92 B3 EB 4F 0F 67 7A 85
 80 45 A5 4D 58 1A 4D 6F 33 66 C1 1A DF 2D FB E1
 F8 73 B6 B3 38 34 E9 22 83 DB DD F4 9E 98 A9 1A
 D7 0D 99 FB 52 BB FC B0 40 76 3D E1 97 9D FE C9
 2C FE 1E 7C C0 F1 05 12 DF 30 B5 09 13 9E 9D 99
 CE CC A0 5F F3 E3 C8 75 3B 0B A0 F7 89 2D 66 C2
 78 3F 88 AC 20 69 65 E8 C1 CA 3C 6E E1 1B 66 E7
 DF D5 8F E7 37 9E 32 F3 7E 31 2B 93 B6 EF E0 65
 DD 46 B9 6B 50 3D CB E6 72 B0 BB BE 79 6A FF 9B
 49 62 0E E8 1E F9 CE 03 83 45 6C 53 2B D8 59 66
 BD 9B 7B 02 75 34 F5 AF 09 72 50 33 4A 54 D8 CA
 86 87 28 B3 25 56 88 5B D0 BF 89 62 FE 46 E9 0F
 F8 86 9D E6 4E 4A 3D 7D 27 18 72 EA FC 60 BA 3F
 5B 72 F9 A5 8F C7 FF C9 18 2D 5D E4 04 5E AE 2C
 A5 19 9A 74 94 E3 1D 2E 20 AB 65 C6 F8 A0 85 61
 B2 0B 1D FE B4 CE C7 E0 1E E6 64 D0 B1 0B C8 AC
 8B 4E D8 5C B6 38 C3 3E 89 A2 C8 8C A7 4F DA F8
 0C 40 3F 8F 71 85 44 4C 24 FC 90 AE DE DE BC 7B
 35 07 AC DD DA 8D 35 ED 44 D4 8B 52 DB 5F A3 D8
 CF 9D E5 18 ED FE B7 95 CD 49 D1 A2 97 C9 B9 0B
 FD C9 D0 DA 27 34 13 29 67 E5 94 9F F5 2E 8A 26
 97 51 AA ED B0 BE 9B FB 90 DF F5 01 77 98 CA EC
 CC 5F DD DD D1 32 17 B1 09 EF 15 16 76 77 7A 6B
 27 EE A0 02 CD C0 69 F4 5A 90 A7 B2 E9 42 57 EB
 91 BA 96 25 96 B0 54 75 44 C0 E0 6C EF F3 E8 50
 1A 93 0E 99 26 DD EB 70 CA ED C7 A8 25 54 83 C3
 80 F8 FB 0D B4 D6 6D 2E AE 56 AF B3 2D CF E9 4E
 B8 88 17 94 A5 BF 5E B6 74 C0 B0 21 CA 0D C2 1B
 FC EF 59 EF C9 C2 1D 96 FA 55 B2 3F 5A E7 83 E4
 B0 52 AB 14 97 1B 92 77 95 B5 DC 4E B9 FD 2D 4B
 35 D7 79 4F D5 C7 46 24 42 58 EB A0 DD 5E 48 E2
 AF 60 16 F4 B1 E1 B9 C7 F0 25 86 DB 50 5C A4 8F
 AE B8 77 17 85 3A E8 C5 22 AE 43 98 DF 0E 6F 5F
 71 29 AF 4C F6 F8 3F 66 09 72 88 7C 19 B3 0A 2A
 42 F2 47 81 EA 5D 35 CB 3A BF 3E 62 1E AF 03 AB
 2E 95 E2 28 31 50 09 74 E7 5B 4A 29 EB 69 50 9C
 8B 28 A8 B6 7E BF 05 3F C2 3B 20 AF 69 46 D4 A5
 54 C4 DF 23 A4 7F F1 F7 27 D2 F7 7F 23 23 8F 13
 10 DC 72 38 A8 89 95 3D C3 F7 DE 9D 15 FA 89 91
 AE 2B 49 5D 30 97 76 93 3C F0 A0 58 2E 71 DC BD
 47 6F 40 4B E0 F5 15 31 97 6F 2A 84 F3 E7 99 5C
 D4 2E 9E 24 1D 4C 62 5E B9 1B 17 E0 33 B3 D3 D6
 CE 24 E7 CA ED 5A A3 5C B5 3E DD F7 5A E9 AC 1D
 B5 1D 61 3F D1 44 C6 D1 4A 7E 34 4E 2B F8 94 A5
 2B 8F E4 93 23 92 E7 22 B9 18 EA D2 B2 51 D0 40
 28 DF 49 38 7E 7A 3C 41
* End 2913929820 307962834