* LTspice Encrypted File
* 
* This encrypted file has been supplied by a 3rd
* party vendor that does not wish to publicize
* the technology used to implement this library.
* 
* Permission is granted to use this file for
* simulations but not to reverse engineer its
* contents.
* 
* Begin:
 62 F7 4D EE D5 85 96 73 B5 B3 B0 EF 81 CE 1B B4
 54 1E 82 30 52 7F 8E DF 5B 0B E1 B3 BC D8 51 9B
 3C 89 1D 97 49 F9 F2 08 24 73 72 2A 09 23 D3 8F
 48 74 CC E8 86 40 75 76 53 DD E5 3C 95 9B 8C DF
 7B 1E 50 A8 E4 FA 0A ED 0F 55 23 17 19 D3 5B 3D
 11 F7 3D 5D A5 04 32 8A C4 EC BE 7B 74 99 9F 5A
 C7 05 35 3F 32 A7 CA B8 B5 DB 19 2F 3B FC 20 1F
 4E EC CD 27 74 5B FA 86 F9 07 CF E9 D4 AA F7 07
 1C CC 20 01 08 C6 87 27 4C A3 66 08 A9 BE 23 DF
 A1 B1 47 C7 FD 9D 3A 12 28 19 D4 CC 57 95 DD 1C
 F9 4D 76 D7 13 E5 C2 28 CC 34 78 6F 10 7A 93 FA
 C1 9D A2 66 71 8D B6 D4 EB AA BD A7 8B 78 81 50
 90 03 6E 0E 8B 8E 06 20 76 76 21 C3 F1 45 42 E8
 52 0C 58 AA 78 1F EC 52 B8 D5 B2 23 8B 34 99 87
 35 8F 87 6F 44 47 DB 5C 3F 87 A3 1D 06 5F 4A 06
 43 BF C3 32 75 8E 84 5A 0E 9D 74 79 DC 73 E1 12
 15 DC 4E F0 F7 29 36 5A 74 6C 63 29 65 8E E4 5E
 F9 79 77 05 E6 AE A6 DE 0F 50 2B 03 92 5A 66 CA
 30 2A AA CF E4 CE 52 9E C1 CA DF 4A 26 5F 0C FA
 B9 E0 C1 A0 8D 76 02 C0 33 58 FC 71 8A 33 D9 BA
 ED D4 4F E8 E0 7B 6A 94 95 E0 CA 6D ED 8D AF 24
 67 DB 0A 2C 8F A2 41 85 EF D7 42 55 59 88 29 8E
 24 87 DF 34 63 7A FA 22 B5 BC 04 6D 69 1E CC 64
 05 08 24 56 00 BD 10 FA D9 14 67 1E 33 ED 61 59
 B1 F6 2F 8D 6B 1F C3 AC F9 77 60 4B 51 3A F2 E9
 08 3B A6 A7 77 39 AB A0 05 EA DB 71 FC E5 FC A1
 67 0A 1B DC 42 E6 60 EE 62 DE BF 50 2F 20 82 EF
 C9 D0 C9 61 91 21 58 19 11 70 92 AD 5B 31 86 19
 43 31 EE 33 C6 AA AF 7B 78 AA 88 03 06 20 B3 A3
 06 DB 32 09 AE 13 94 7A BC F8 ED 33 0B 3B 9E 05
 72 E0 27 25 82 1F E6 89 6A F4 5C 15 FF D4 31 56
 FD 66 C6 8A E0 38 CB FA 80 F3 52 8C 8D 34 38 B4
 EC 40 EB 96 25 50 51 F9 44 C3 23 DD A0 EB C1 53
 FE 53 F4 F7 94 92 3C D2 F1 E9 9D FE 0F B9 43 00
 5C 77 E4 A6 97 77 69 CF 23 22 34 40 F0 B6 46 34
 A4 01 9F 5D 74 8A 86 4B 35 57 09 D1 E6 6F EE B5
 EC 8D FA 2D 64 05 77 FC 06 40 AF C9 1E 7C BA 81
 44 FF 57 A9 0E 9B E8 94 2E 98 36 A6 BC 5C EE 87
 A9 4C D3 41 02 5B 14 92 90 57 C9 77 0A 61 68 87
 D5 0B B8 03 32 0C 4D D3 34 1F 76 9B 57 94 0D 2A
 1E 6B 49 97 6E 9A 45 50 02 02 E4 0C F0 A0 1A 97
 CC B3 C5 F1 97 3D 72 9C 27 40 BC 88 AE 9B 2B D8
 4D 13 77 62 83 DE 99 2F FB F1 AC A7 FF DC A2 C2
 59 FD DF E9 31 48 04 70 D7 6C 67 F6 20 77 E3 F0
 54 D9 BD BE 69 CA 8D 91 4A B3 1A AE 72 4E 91 2A
 0E 82 42 2E CA C2 35 35 92 00 D2 6E 65 16 A5 0B
 34 BF 2E F7 15 79 1E F6 39 2A 6F D3 2D 18 6B 45
 B0 97 F1 BF 23 F6 EF 53 F1 13 88 9C 39 0F FE 3D
 14 88 5D 5D E9 80 A4 1E 9F 0F 5D 27 71 C4 99 64
 92 AC 69 D9 2A 96 D5 11 7C 0F 26 CE A7 26 D3 74
 B9 C2 36 B8 CA B0 6F 1D 06 12 37 C9 8F 6D CA 60
 BA 81 DA 03 72 2B 28 B5 13 92 74 F4 3C E3 49 3B
 51 27 5D D0 2C 2D DE 1A 03 F8 A7 00 C0 3F 95 23
 A2 59 EF E1 43 89 65 7C C1 3B 43 C3 16 A0 64 EB
 7C F3 33 AA B0 42 EA 5B 1D 3A A6 FF E1 15 74 3A
 42 91 2B 7A 25 08 0F 76 4D 6A C2 33 BD 49 1A AB
 F7 D0 43 C4 8F B2 3F CF 9A FD 54 50 64 C0 3D 4A
 CE 11 2D DC 64 C7 E8 EF 2C 6C 04 1A E0 91 16 72
 2A D6 8D 6D F1 36 58 80 B0 54 F1 DB 1E 9E 5B 4E
 E6 77 A3 A1 84 91 1B 80 FB 82 E0 D4 24 9C FD 53
 77 51 50 82 0F 13 C4 4D 51 DE C2 1A 66 A8 07 EA
 A8 DF 73 4C 0D 02 19 8E 99 56 AB A9 46 DC A8 58
 E4 DA 51 EC B8 B6 71 D2 6B 9A 19 42 70 17 6B DF
 3B 88 BF 31 07 93 A8 A1 DD 81 8A 0E CF 91 3F CA
 89 19 6B F9 21 B1 1B 79 88 ED 0E 6F 9C 2B D7 E6
 61 62 95 C3 0E 16 5D 78 AD AF 69 A8 10 79 93 15
 1D 52 90 44 BD 82 03 23 16 4C D6 49 00 64 B4 3F
 32 0C B3 C9 90 80 F2 C4 5A 7C 2C D7 86 5D 32 C8
 55 AC E6 50 AD 25 86 F5 96 57 17 95 36 68 4C 1E
 64 A0 CF 73 F7 17 F0 32 3E 85 57 F2 EC 68 96 F8
 91 D2 5B 13 75 78 8F A6 D3 A6 44 21 2E AE 86 54
 C1 A9 C7 A1 38 FF 51 16 69 05 E4 8F BE CA DA 70
 A8 68 8D 7E CE BF 83 76 E9 23 4C 66 B5 F1 A6 19
 0B D5 4E 24 13 9F 27 4D 61 19 77 44 6F 68 6E ED
 04 3B 08 D6 EF 3B 55 B2 31 CE D5 97 D3 B9 07 83
 51 E4 DD 23 E2 44 CE 6C 35 BF AE 26 FE 37 13 B4
 18 FD 5B F1 9F 43 29 26 09 A7 24 98 05 C9 7B 21
 F9 FC C3 A5 4C 70 5A C1 18 7A 99 48 3D 6B 39 77
 2E 43 9D 66 85 8D EE 42 57 99 C7 6C 34 0E 51 30
 93 88 FA 9E 49 3B 2E 51 98 AF E8 AB DF 60 A6 DA
 D8 4F F2 20 AA EA 00 3C F8 60 8D BA C9 65 7E E5
 86 65 E3 0D D5 A2 DF 39 28 00 EB 4A 7A A5 2D 1F
 14 40 3C E4 13 6B 59 C4 DE 33 7C 0A 8B C6 B3 A0
 05 14 73 F8 40 42 F7 B5 AC B6 E5 87 00 0D 11 13
 B7 03 A4 AB 06 ED 70 6E 00 8D 9E D7 0C CC 38 22
 F6 04 BD C3 CA 27 F3 CD A7 6D 6A C1 91 2B C9 CC
 59 7A E5 04 AE 32 F0 A6 07 3A 8D CD BA 63 59 E3
 D8 B4 70 CA C3 7D CE 09 E6 5A BD 13 F4 9D C8 35
 58 44 48 E8 CF 09 6F EB C5 04 20 A4 DA C5 C9 A6
 CD 82 1A 8D 3B 21 28 EA 92 63 15 71 E8 8B 96 3F
 8F 9C 8F 13 12 C4 99 DB B1 55 3D 10 B1 FB AB ED
 AF 58 04 C5 8C F7 F1 72 31 05 CF 98 52 F0 A9 4A
 94 07 A2 19 BE 5A 94 A5 A0 7D 16 DA 64 C5 1F A8
 CE DE 96 3F B7 66 29 A4 76 E8 26 A9 DE 1A 9B A1
 0F 09 4C 11 12 20 A6 45 87 8B 44 74 7A 45 2E 8E
 A1 07 27 88 4E 9E 0A 26 D8 4A 15 56 59 E0 D9 A3
 D4 47 09 8F 30 A4 EE 98 1A C2 D5 E5 C5 6C AF B5
 18 E1 82 71 26 70 43 E0 CC B0 26 D3 F9 FD 01 04
 59 6C 28 36 53 E7 A2 F3 20 FD 1F 82 F7 56 E4 A8
 4F 75 46 89 BC B0 27 21 BA 21 AE 3B 53 46 D5 DE
 37 C9 B2 EF AA E2 36 4B 91 C4 D7 36 B9 CE F4 F7
 74 10 A0 A3 D5 0D AA 0E AD 15 BF 17 C5 5E 23 E3
 E4 CB 94 FC 74 F7 35 E7 B2 3E FB DD 98 B6 A3 42
 DC 6F 79 17 8D 86 E9 AA 13 DF CE 7F 2F 3A 5C 00
 4D 81 FB 4A 3D 81 91 5D 15 A5 B9 30 8D 4F 86 02
 E8 C3 4B 5C E1 7E 12 FE 49 3E E2 DE 84 C2 0D 15
 D0 F0 84 D9 9F FB 6C 6D 19 97 FA 89 EA 7C 2D 2F
 6D A7 F2 2D C1 00 87 DE 0C A1 80 DF DA 41 A4 7B
 C1 2D 2A 5D D4 B9 F7 1A 90 E5 0E 12 89 03 99 D4
 60 7B DE 38 D7 71 98 96 2C B8 40 8A 63 86 02 C9
 E2 2A E3 66 17 07 B7 32 A2 34 31 24 8B 8A 64 39
 1E F9 74 0E 21 ED 1E 89 96 BB 73 31 12 F3 19 F9
 57 3B EF 64 34 A4 DD 92 A5 B1 5E 24 FA A9 DE 51
 A4 D9 CB 13 A1 1F 05 6F FD 39 00 11 E5 53 8C 63
 0E C9 CF 19 AC 2A 2D C4 9C CF 6C BA 10 3D 4C AE
 94 91 2C 1C BA DA F0 47 60 EF CC E1 D9 67 55 60
 79 5C F6 6D 8F CD 4F 11 BD C2 8A 54 F8 63 F4 D6
 B3 2E 6A BC 1F 88 E3 B5 3B 39 19 07 23 18 CE B8
 4B 39 62 9F 66 2D 89 D5 4E F4 A2 70 5E 83 E6 09
 F5 E2 AD 51 AE F1 1A E5 98 C4 D3 4D 1B 53 52 D5
 49 A4 DB FD BC 04 A7 AC C0 EC FD F7 DF 5E 8D B1
 FD 04 C8 D4 A0 4A 53 00 A6 9E 3A C6 24 44 C0 61
 2F B6 C9 5E 0C A1 29 C3 8F 09 FB 70 A7 9E EB 15
 A5 ED 45 9B B3 21 B7 A2 CE 81 61 F7 E1 55 77 1B
 9E 2F 3D DC 93 51 16 94 BD 0B 99 56 1E CE 31 C4
 4A 14 D3 72 DC EC 27 AD 97 B1 65 DB B9 FE 0B 7D
 FF E4 96 B4 31 12 DC 60 E5 E3 FD 35 EC 8C C6 5C
 E3 59 45 59 CE F5 D0 44 9D 4D 9D F6 A5 7B 46 12
 99 8B 7D 16 EF 5A 75 20 D2 6F 87 C0 44 CA 7E 45
 F4 5F 64 A9 96 9A 45 4C CB 9C 6B 36 5D 75 22 D6
 55 11 2B F4 22 52 F3 30 B4 41 34 CC 8F EA 57 FE
 DE 9C 3D 63 FD FC 0C 13 A5 4F 48 EE 2E 88 3A B1
 33 73 18 4A 2F 7A 39 B1 25 49 67 3F 19 F4 C9 EF
 BE 08 3B 97 50 DE FF B2 3D 34 67 E3 D2 A6 86 E7
 E6 7B B6 C9 16 D2 F3 AD C7 89 41 98 84 7C ED 22
 0D B0 0A 26 71 F3 B6 38 86 EB 96 12 65 DE FC 64
 E5 D4 9F 5F BB 01 70 AD 21 C4 55 83 7F 9B FD B9
 30 0B D3 BF 9A A1 4C 01 DC A8 39 3E C0 F7 60 D3
 9E 42 F1 78 CA F4 FB 2B 5E FC 41 D1 01 88 D0 D9
 4D CF EC C9 EF 2A 85 8D 03 8F EC 09 26 AB 7F 3D
 ED 97 F3 1A C4 C1 4E DD CA BD FC 5D FE 71 8A D9
 10 A5 AB 07 6F 29 A2 2D B0 4E 06 B4 0E 33 FF 2F
 B9 03 71 6B 04 BE F1 E0 D5 B6 E1 FC 31 50 DF 53
 EB DD D9 4F DA CB D8 53 89 83 39 A4 2B 11 86 73
 8C 63 32 54 B9 1C E0 95 BD F8 4E 9B 8F 14 E9 79
 8D 3C BF B7 09 12 41 6C 98 02 BB 4C 4F 30 78 23
 0B BE 01 3B E6 C7 FD 71 1E D5 7A A2 4A 01 E7 55
 D4 28 D9 B9 BC 8B 27 16 BF 53 10 80 D1 B0 75 8C
 C2 36 A1 DF 04 28 0D A0 1F 3B AB 14 30 25 60 B5
 E6 04 B2 79 03 8E 14 EF 04 6F 32 31 3F A5 51 F3
 53 D6 76 55 C1 BC 9C 36 75 95 B8 13 D3 C2 6F DB
 92 8E 90 66 F3 39 BF 39 92 B5 90 BE 06 51 ED 6C
 71 62 0B 4D F2 62 F3 2A 0C 06 75 BF 96 13 4E 8E
 26 F0 A8 14 83 4C CF 3C 1B 0B D5 4B CA F1 EF 7E
 15 1A 39 CC A6 0F 6B EC DA F5 DC FD 70 83 47 C1
 08 E7 26 12 AB 57 64 F3 22 21 FB F9 08 C6 AD B6
 40 7E 83 48 08 87 F0 73 43 B3 38 CA 2A 97 36 C0
 63 13 0E 95 9A 80 40 A8 5D E1 67 B0 C7 B9 8F E0
 3E 45 AC 30 80 74 F1 7F 29 4C AE 78 CC BF 1D 1F
 90 DF F2 2B DD 30 BB 46 F6 A7 23 70 26 83 83 63
 FA 77 D0 40 E4 78 AD 13 03 B5 0E 4C 65 DE F8 F6
 64 51 99 B1 4F 17 2D 41 E9 00 90 70 A8 BE A2 21
 EF 22 29 12 92 3F A5 7F ED E1 84 26 C4 54 4C 7E
 2B 17 35 3B 8C 11 97 37 7C DB 52 40 48 29 60 08
 6E 67 22 71 50 C9 82 98 B6 DD 3C FC F6 C6 50 D6
 60 7E F1 5D E1 3F BF E1 77 72 01 77 D5 77 98 DC
 C7 DF D6 65 4C 4C 24 97 A5 B6 95 AA 47 D6 A6 BA
 81 47 0E 83 E4 D2 7A F2 30 C5 44 A1 E9 76 F8 0B
 64 3E 1D 27 32 7D 1F 54 E7 22 AF 5D 87 A5 22 F3
 62 D9 3F 75 21 18 76 C1 02 91 83 5F 2F BA E4 41
 AF F6 D6 EA 32 45 D2 66 81 69 61 F5 E0 D9 21 84
 6A 64 8D 46 7A 3E EE D0 17 66 9E ED FE 70 06 32
 CB 70 24 83 AE 6C 14 A4 C0 91 14 10 31 FE 9B 1B
 90 4A 9F E4 03 5C B8 A3 65 B2 17 2C 5E AE 3B 3D
 FC F4 9E B8 DD 3D 73 71 D3 85 17 A4 1C 00 E2 04
 D1 C9 60 B8 60 9C 97 B2 9B 9F 14 7F FD 18 EE 31
 03 A0 AA 9E 96 75 AA DB 5A 2F 67 B2 E8 74 2A FA
 0E 94 F4 37 95 3E E6 89 0E B4 95 B7 79 72 A4 2E
 79 91 3F 5E 30 3A B6 ED A6 7F 97 22 16 88 27 DB
 8F 22 F3 20 EF D2 78 18 10 03 69 90 96 6D 58 D0
 5B 42 B0 4C AB 5A 34 7E C2 7F E5 24 53 3A 24 BE
 4C 3A 2B 79 5F 55 BF 11 1A 80 C3 79 C6 D9 89 53
 21 F7 12 B9 BA 2C 18 19 F6 0F 84 7E 27 A3 6D 6A
 42 32 B5 8F 67 84 F5 44 C9 F3 44 83 1A AA 2F 28
 37 8D 24 B1 C9 9E 4D 19 10 C9 DA E5 CD 98 C1 38
 A0 81 4F 20 D3 67 ED 10 FA E9 9C 72 62 D2 78 90
 43 77 EB 7D 19 05 A8 F9 62 83 5F E7 9E 2A 08 4B
 B6 D0 B6 31 EA 86 01 04 23 73 13 0E 35 F2 83 35
 64 BB EB 19 3F 73 D8 1B FF 04 0E 9B 16 34 03 62
 4C 76 93 18 7E 1E FF 3D B9 50 BC CA DC 2A 36 91
 8A EE 19 AA 00 D4 46 4C D3 BB 22 43 AB 2F 3E 12
 84 AF D9 CB 6F 5E 7A A5 21 1A BF 38 2A D3 73 1B
 E2 37 8C B8 EB E0 6E 26 05 25 AF D7 24 32 11 D2
 67 6C C6 8E 9A 84 99 36 D2 42 1B 80 C6 E7 D4 C3
 50 A5 80 0F 29 04 AF 7C EC BA EF 03 55 22 57 63
 D0 C4 6A E0 9B 52 77 2E 27 25 02 A6 06 23 35 05
 AB 67 F9 D8 79 37 F4 A6 78 42 20 01 8B EC 1E 4B
 5B 18 D0 DF A2 0F 18 4B B4 40 BE CE C1 BF AB C8
 92 2F 03 C0 11 17 C6 58 EA CF 43 91 A0 2F A1 0E
 45 68 1F BB AE 43 55 E3 E4 3F F4 D3 B8 4E 30 DC
 54 DE 3D E5 B3 A2 CC 4E DA 20 59 D3 B8 95 05 4D
 21 80 07 BB 27 B2 41 30 22 11 57 4C 5A A2 94 CF
 CE 23 A6 17 D0 E6 87 00 64 5F 1A 9D B4 D5 ED 7D
 68 3C C5 18 2B DB F9 E1 F8 FE AF 9F E7 CB 99 F4
 49 92 04 3B 40 16 79 D1 AB F0 E6 A1 65 39 DD 0A
 0A D5 37 A9 F1 9F 67 F5 13 6C 73 4E C9 4C E7 F3
 21 90 F0 6D 4C 35 4A C3 E4 BE 61 FF 05 BA 98 17
 2B 8D D4 90 9B 32 D7 49 D8 C0 BE AA 77 87 55 86
 48 E6 D9 1E 39 24 65 55 0E D2 2A 1B 10 FC E7 F5
 78 EA 19 C8 D4 05 FA 62 04 44 FC 64 BC D3 BA 32
 D9 22 2F 83 AC FC A9 69 EC E7 5F B8 71 47 7A 09
 6F 6C 51 C9 E0 C6 32 37 77 57 55 E9 27 2D C1 33
 F8 1F 6E B9 A1 DD F6 6A 49 1B FD C3 4D E8 CA 24
 B9 03 D5 98 D3 DD 70 E9 8F 14 38 29 A0 B5 51 13
 AB 5F E8 D3 54 3B C6 D8 23 98 AC AB 9D A3 63 CA
 61 68 48 AC 8D 91 66 B1 1A 68 35 77 03 85 70 91
 B3 36 47 FE C9 FB 48 0A B9 CA AA 1F DD 19 44 30
 F9 98 EF 63 5E 2D 94 9E DD AD FC B0 DC 08 D0 7A
 8F 30 B9 53 C0 C0 CE 82 A0 3C 26 41 DD F8 E8 90
 45 5C 2E FD EC D8 8F 1A B6 CA E2 D3 A0 21 DA A2
 92 70 F9 84 79 75 5E 3B A6 FA 16 9E A0 56 51 2D
 01 57 B0 AF EF 5A A2 53 9B F3 C7 47 D1 5C E6 33
 60 FB 75 10 C7 F5 13 AD 75 CB 5D 68 DA AE 5E E0
 A1 4A 5A 12 F8 A2 8C 62 7B 4B 88 72 26 ED 88 A8
 3F 13 30 BC F7 B8 FC 22 68 68 AD 4A F5 CA D5 58
 18 E3 B3 5A A2 F2 22 D0 58 3C 15 E6 B3 98 B5 46
 77 B4 B8 1F 52 99 C9 58 52 C4 35 16 42 48 13 94
 11 53 B2 52 5E 23 B3 2B 39 76 50 52 01 49 67 BF
 FE 7E F8 70 FF BF 3A F9 9A 23 96 30 EB C3 3C AA
 40 43 E8 1F FC 96 F1 A2 D5 5A C6 17 BC 15 9E 4A
 D1 43 1E DB 5A 45 6A 01 A3 B6 F8 58 48 86 53 59
 FA 08 9C CD F2 63 2D 1D 70 DD B5 50 D5 83 90 11
 C7 39 70 CB 50 E3 E8 55 88 89 58 87 2D 26 4C 94
 33 5F 6B 72 06 64 EA E5 78 04 EB BC F2 01 0B DE
 80 65 0A 46 5E 45 D5 01 37 EC 58 6E A3 44 1B 45
 1E B5 06 7C F7 7F 8D DD 76 41 87 E4 67 80 5C 71
 DA F8 98 17 08 5E B9 BC A2 86 3B 4E CD 7D 65 BB
 71 FD 67 0E 39 84 08 8E CE D5 00 21 66 0C EE 9D
 31 26 CD 47 8D F4 50 4D BC 1A 51 AA 42 A8 CF CE
 85 D7 C5 B5 AF 6A EB 72 28 BF A2 9C 64 94 27 17
 B5 2A 00 87 E3 C4 C7 DE 54 C5 49 07 62 11 CC A7
 F8 E2 90 B4 82 05 35 F8 59 09 C8 BB 83 46 2F E1
 D6 10 27 A8 C5 50 33 9B D9 17 38 31 EB 6C 19 E2
 A7 BC D9 EE A2 F8 16 37 82 DA CD 7A CE F2 20 B4
 EA 3B 25 AD C5 F0 74 F0 0D 8A B2 A9 CD B2 4F F0
 01 A4 7C 94 06 4A 7C D5 F9 41 6F E6 56 57 95 F7
 34 C8 EA 57 D7 79 CB 96 84 14 BD 2D 8D DB 76 14
 D5 6C B3 F5 0E 25 79 81 87 61 67 12 29 EC F4 78
 FA C7 C7 25 64 F5 A1 28 3D D1 D2 70 CB 43 F0 5C
 2E D5 03 69 60 3D 6C 1D FE 1F 9F 11 24 14 63 D1
 E2 B5 4A 9A 21 94 16 CF 92 F2 42 02 4E 71 3E 32
 68 49 45 3E FB 50 82 77 BE 33 57 8A A5 FB D0 9D
 3F C6 57 86 A9 FA 4F B5 1E 3C 73 62 49 20 C0 6F
 FE 48 0A E2 6F BA E2 69 61 25 0D 20 0D 04 12 6C
 D3 11 86 28 E1 22 F2 17 88 97 78 3C 7F FC DC 79
 38 AE CB 32 8A 6F 0A B2 A4 91 1E 05 FD 84 F0 E7
 F1 89 29 23 DE 41 3D C5 04 30 CC DE CE 3A 2B C5
 0F 5D 53 D3 5B E8 1E 50 60 CC 03 5D DB 75 E4 CB
 F1 11 92 3D A8 C2 26 CD 6D 66 5E D5 43 C1 52 9A
 DC 99 94 98 6A AE 79 CA 5D AD 75 00 9C 00 64 0E
 0E AE B8 D8 5F F2 82 0F EB BE AD 13 43 E8 6D C8
 34 48 3E 33 AC AA 50 5B FA 3A 85 EE 01 F5 F6 8E
 94 B7 8C B6 59 3B D2 75 75 1D 95 9B B3 20 19 8B
 3A 5E 84 06 AC 96 EE E8 C1 73 AF B2 67 CE 22 B0
 FF A5 EB BE FE 05 5D 13 79 06 83 A4 0D 65 4B 5B
 D5 E4 B1 0E 34 7F 4E A9 CF E5 70 E5 62 7F 01 41
 C5 C5 D3 D5 ED 2D 7D F3 BC 71 A1 68 9A BC D5 B6
 6A 89 DB 6A 58 11 37 B8 FD 10 3C DC D5 90 9E 27
 D3 0E E3 C7 CF 34 A8 5D 18 F6 C1 1E BE 3C BE 24
 ED DC D0 C4 81 F0 46 82 65 83 62 C1 23 E7 D1 C5
 D5 3B 34 F4 B1 21 E0 25 42 C5 53 D7 4D 7F E2 A4
 74 D9 46 19 91 C7 7E 06 EF 5C C0 A9 7E 54 A8 C4
 7F 1C 5E F1 07 C9 B9 70 D0 58 C5 33 D9 EA 85 0B
 69 FA DF E6 D3 B0 06 EC 8B 42 0A EB 8A 42 64 6E
 BD 17 9B 98 4D 57 A3 B3 CA F4 3E EA 4D A8 7F C0
 66 E0 3B DD 8F 14 19 F5 B3 23 23 FC FF BE 01 3E
 F6 28 47 7A FC F3 48 37 1E 35 DA D5 67 6E A1 27
 68 AC A1 42 2C 7E 07 AB 06 C5 6E 17 BE 30 B9 63
 EF 6C 80 6A 5B 4F DF EA CA 80 9E F3 65 34 2F A5
 89 2E 93 98 8D BB 46 4E 5D B2 8A BC 6E B5 04 33
 0A 12 CD 22 25 BC E7 0D F6 E2 91 63 A7 7B 57 F0
 DA 93 BB 0A 47 C6 66 7A 64 F6 BD 2D 92 CE 2C FD
 F8 6A 4B 04 A7 C0 FC 03 36 62 85 3C 6B AE 36 5F
 76 CF 7E 8A FB 78 F9 77 D1 C8 CD 62 3E 34 EF 07
 7E 79 96 DF 2F 1A C2 05 60 ED 56 CA DD B9 69 DA
 F7 6F 20 36 52 30 89 0F 0C F2 C3 5A C5 24 C2 1F
 39 1E 02 F2 D6 10 60 73 53 60 D6 48 E1 C4 AD B5
 A8 73 7F 64 12 82 FD 91 90 85 08 A6 73 80 83 81
 AE 3C 01 62 01 17 89 20 93 40 D1 60 29 8A 19 F1
 B0 7A C3 2C 2B 77 A7 B1 89 C0 FC E8 E2 5E 2C 2D
 9E F5 28 A7 B6 A8 16 05 03 F9 47 04 B5 D2 0A 4E
 0F 12 5A 2B F8 A4 AE A2 25 C4 9F D5 ED 05 CD 39
 16 44 30 40 B3 93 DF BA BD D0 DE 27 EE 95 D3 89
 99 C4 2C 95 67 3C 16 30 DE 2A 72 6B D0 03 AE F1
 89 99 15 73 C0 79 7E 66 11 54 5A 20 B5 5E B6 08
 C0 48 E8 B2 48 70 B1 85 3B 27 DC FD CA D2 3C 5B
 F7 0B F8 81 F6 54 9F 55 FF C7 DA 57 5F 04 62 F3
 5D 03 B9 43 05 47 5C 50 C2 E5 C0 19 98 F5 E7 A3
 66 00 C1 23 69 16 01 61 00 84 12 6A D9 31 8B BF
 B8 B7 87 28 13 D3 FB FD 6A 1B BC A0 1E 66 4B 9B
 42 DF ED 53 20 EA 78 48 F0 40 9F 59 C8 A8 1E 00
 53 FE 69 BF DD 74 8A 91 59 12 F7 73 B5 10 CC 28
 D9 4E 69 CB 6C 72 5C 7F 9C 1D 27 74 56 F2 E6 38
 6E C1 1D 63 B5 D3 41 75 17 63 B5 C3 B5 54 FB 5F
 A4 24 CB 8A AF 6B 53 B2 89 37 E5 54 AB 66 2B 72
 57 FB 4D A7 78 8B 7B 7F D7 7E 5F 83 C6 B1 AB E0
 60 66 56 9A 9C 50 9A 90 77 D0 4A D1 0E F1 72 75
 83 70 A7 1D C9 6C 29 E1 7C 57 DC 91 9D FB 61 98
 8A F2 1B 6F A0 87 13 3D 18 77 61 DA 01 17 1C 5C
 AF 2A CC C0 5A F7 40 15 DC B4 D5 11 68 1C DB 79
 6A 53 F7 97 2C EC E4 2D 3A FC 18 1D 14 EA 9A D5
 08 58 37 CF 4A 96 33 56 AD 9F 97 E0 C6 E1 37 67
 7B D0 52 05 1C 57 3F 30 EC B7 D1 9F 77 9B BC 9E
 DB 3B 92 F0 DB 1A 5C 79 1C BA A2 29 E1 F0 A1 E2
 F3 EB B9 26 7C F4 18 05 03 DA 11 50 F5 FE 94 74
 CE DF BF A0 BC DF 85 58 E0 63 23 09 78 2D 64 1E
 25 0F 38 9F D9 0E 38 91 A0 7A 9D E9 43 F6 A6 86
 B9 35 6C 1F 2E C2 1E 54 35 9B 4A 11 A8 B1 F5 76
 1C 32 6F E7 79 ED 22 D4 23 00 CF 59 67 B0 00 6A
 5C 6A D3 61 85 B4 C0 C3 8A E4 75 16 A0 C6 B3 15
 23 49 66 E5 85 D5 DE 89 38 A1 13 BA E0 76 E6 17
 DC C4 81 51 26 1B 6E EC 12 BC 39 7B D0 E2 D1 3C
 5B ED 7F AB 7A A7 4E D6 23 41 39 A5 15 AB 67 63
 C9 77 36 7C B3 10 F2 88 34 A7 B8 0F F4 3A F4 38
 27 05 E3 B5 EC 3E 05 A9 4E 65 5A 33 F6 2D B7 6E
 2E 03 3E DD 5D 83 70 EC A9 78 5F 3A 14 7F 93 2C
 AF FA A2 6B B0 C3 60 BC 5B 5D AA D9 B3 39 7F B0
 8E C1 7E 1E F6 C7 C9 28 6C C8 D4 8F 22 4B 1E ED
 69 AB AB 22 E0 EC 53 26 15 F5 12 59 73 1B 37 15
 73 5D 34 6E 5D F5 E3 69 08 A8 7F 45 3C 09 AA 5E
 87 72 DB 49 D4 F6 52 03 09 D2 E9 91 FA 1A FE F3
 87 D3 6E B1 F3 A7 CA 29 7B 0F FE F5 29 70 45 CC
 DC EE 2A 9F EA 90 53 CA 5F 63 82 43 EB 05 B7 B6
 E9 C6 57 43 51 CD FC B4 4A 6D 86 BE 8A 8C BE 75
 C5 5A A7 94 AB 9D D5 D2 17 8E 95 23 C5 96 0B 0D
 63 6B BC 0F 27 53 17 2E A7 CD 4C E3 D8 EF D9 89
 27 61 9F C6 68 58 66 64 D5 30 45 36 28 54 2E A8
 C8 41 CB B3 73 D4 27 B4 E1 EF 3D 9B B0 11 B1 0E
 C9 88 3D 77 A7 97 E6 39 BE 6A 12 E9 3A F5 E6 77
 36 7A B9 33 86 0B B1 95 F4 0E 25 C6 DF 45 92 AA
 45 80 5D CA 8D 64 AC 13 72 FB 4B B8 3E 0D 07 93
 B1 C9 B3 13 2F FB E4 55 88 FB 15 B7 25 D6 FA 6C
 7F C9 8A 70 7F AD 8F 1D E3 C8 C3 E7 96 B7 8A F8
 1C 7F 08 4B F9 0D 14 23 0E DF E2 4F 2E E3 06 BC
 CB D0 45 88 58 BA 80 27 BB 2B 7F 3A D1 35 FD 75
 48 61 05 9F 30 E7 F7 00 34 44 45 0C 49 76 D1 49
 68 E5 03 46 C4 0B 72 9A 02 C4 30 41 F5 8F C5 E0
 4A EC BF D4 14 DF 5D 25 7C D0 B1 33 D2 69 B9 D2
 3F 9C AF 58 B8 56 38 B0 F1 CA 8F 9F 30 09 AF 36
 B5 F7 E5 7E 72 BC A4 D5 B4 21 60 0E A9 D8 66 F0
 F4 F0 48 99 CE F5 F6 E3 F8 B8 13 AE DF FB FC 5D
 58 D1 05 46 99 C1 11 39 CB 1C 18 97 42 62 BE 68
 A9 03 44 18 6B F8 93 C1 05 62 57 0A 08 2D 96 3E
 26 50 52 EF 2F 05 B0 3C 5C 2F 91 51 55 66 A0 2C
 DE C3 85 6A CF CE 01 D2 33 E5 61 B5 C3 AB 37 4B
 C7 6B FF A5 19 A5 0D 5E A2 F1 9B EF F0 C3 56 A4
 A2 D3 0E 9B 30 C7 EB D3 51 B3 70 9A 86 56 DB 50
 4D 23 1A 20 CC C2 97 6D F8 2C 0B F4 84 7F 83 88
 06 38 A8 DB 15 E6 D8 AF 3D B0 91 2E 04 05 5C 45
 42 19 3F F6 01 82 A8 EC 8E 55 A8 F6 ED DF CD FB
 BA 45 3E 4B F9 62 D4 36 30 8D 47 38 09 1C FD 87
 CE A3 16 3A 6B A0 55 90 46 05 49 22 3E 2D 4F 5A
 88 4C 14 15 78 C4 B8 A0 E3 8F CC 15 4B 6F 4F 06
 43 99 C9 6F 4F D9 D2 86 5E 6F 9D 8E 48 EE 47 5B
 0A 2A 9F 4B 08 4C 9C DE DB 49 0C 46 8D 05 A1 41
 90 3F 85 93 86 86 E4 07 6A 77 D1 EF AF F4 5D 83
 B3 5B B9 BE 37 E6 F8 53 7E AE 14 AD F4 75 56 4A
 06 03 23 ED 29 39 15 3E 48 21 B1 E2 A4 FD 3A 73
 5B D5 12 96 AF F4 08 A2 CB 43 5F 2D BF 94 50 29
 19 56 B7 55 36 3F 9D EE 48 45 5A 38 A9 F9 C3 FD
 E2 54 86 A4 42 BA 5B 4A 9B 9A 25 60 89 82 5E 5B
 02 A8 B6 B9 F2 01 83 98 7D 42 16 09 F2 59 85 DA
 F4 DD 7F 0D 76 E1 35 97 65 01 9D 8D FD 66 69 ED
 9C 6C 71 37 20 F7 97 F7 8B A3 13 5C 15 6A E8 FF
 C5 C9 82 A9 54 66 E0 F2 65 8E 2B 80 E7 87 A2 17
 F3 7B 51 BD F7 A5 CE 91 88 43 0E 1D 71 74 B6 F1
 E0 4C 52 C9 F7 1A 3C CB 4E 95 0B 42 29 F1 36 C5
 E3 6C 6D D9 B1 39 A2 B8 60 EA 0A FE 68 DF 0A B9
 A4 72 C2 F7 CD 89 9E 33 AB 7E 0F 61 E4 43 DC 8F
 A9 70 D9 29 32 1F 0C A7 1E B0 F7 D7 23 28 33 D7
 AB 71 4A B3 84 4F 0A B9 01 55 71 CC E4 3A 90 2F
 10 A2 66 B8 8D D0 05 31 61 24 4B 16 38 9F AA B0
 B1 40 27 AD AA AF F0 EC 15 D8 CD 6B D7 91 3E 47
 32 98 69 36 12 AF D2 23 89 16 63 9B C3 60 83 3C
 65 44 F1 0D AA E5 D3 B3 6C CB 61 50 43 C3 10 41
 88 21 34 86 7F 93 CE CB 13 F8 D0 5B BD 89 C7 4C
 B6 70 C0 E3 A0 B7 8B 96 BE 62 A0 0A 74 EC 90 40
 30 05 76 80 3F 27 85 68 8F 76 44 E3 5A FE BD A0
 95 12 58 5A AD E6 45 3C EA 3F 47 80 F8 D3 7E 90
 46 AB 1B 78 93 9D 98 86 05 44 07 C0 D7 14 88 15
 A1 80 32 7A 58 CF 74 5A F0 BA A3 C0 AD 37 DE 03
 4B 0B 20 50 AA B2 71 2D 66 84 2D F0 3E 6A 32 CE
 97 EC 89 24 94 80 73 70 9A 72 8B 22 E1 19 B2 8D
 1A 73 1A 2D 10 2C 8F C9 9E E9 D3 17 26 8D 88 5D
 86 EB BC 55 C8 C8 28 2C
* End 3557466106 934170282