* LTspice Encrypted File
* 
* This encrypted file has been supplied by a 3rd
* party vendor that does not wish to publicize
* the technology used to implement this library.
* 
* Permission is granted to use this file for
* simulations but not to reverse engineer its
* contents.
* 
* Begin:
 02 96 EC 75 45 0E 9E 3C 16 9D 3A CE DE 5B 1F C0
 54 14 D5 CE FA F8 24 17 CE 33 7B 6A 2A 65 6F 97
 E1 CB 84 ED 8B BC 35 D2 34 01 E0 45 8A C6 D5 14
 EC C2 12 78 B0 03 73 8B 62 1B 6C 93 9A 95 79 BC
 1C 26 21 10 52 A7 0F 6F EB 9B E2 9F F1 7F 4F D1
 59 8F 6D 9D DB 88 59 67 43 7E 6B 09 FC 9E 51 37
 E0 E0 FC D7 0F C0 69 8E 63 56 24 DB DA 2F A0 7D
 28 AC EA 76 33 31 1E 7E 6C 21 6C 21 84 AB 9F DF
 27 89 A9 4B E1 32 9A 5E 50 74 8F 41 C0 95 B8 16
 AF 7C FD E9 0A B0 EB AD 4C B7 C3 81 7E 02 C9 83
 59 7C BD D7 27 8B BC 2C FD 7E 2A 10 67 CD 09 CE
 CE A4 8E FB BE 33 72 C9 A7 B6 73 F1 98 70 24 F4
 A4 E5 10 64 81 97 71 F2 B3 1B F3 CF EF 73 71 BB
 2D 6C F4 39 25 1E 8C F8 CE 62 C1 2E 2D 48 8A 27
 55 F8 10 C6 4C F2 B0 0E 32 C0 B6 D9 A9 DB 56 DA
 B1 2D 3A 4E 09 98 67 2C 20 B4 A9 DC 3B 21 CA 40
 AB F8 17 87 D8 84 95 E6 E6 5F 70 A5 6F 12 78 3A
 7D C4 C0 8B FF 0B B2 66 75 E5 B2 FD DE 54 64 C6
 74 73 29 99 F0 93 6C 27 AA D9 80 7B 95 6C 6C 69
 D8 9E 38 06 22 C8 F7 89 C1 6D 68 45 E4 4B 9C 73
 62 F5 C0 DB 55 15 74 6C 5C 1E AD B7 2D 6A 52 2D
 A5 25 07 9A ED BD EF ED BA 40 FC 37 E4 FD 55 9B
 8F 5A 70 3B C4 0B 5B 66 4A 32 1E 5C A9 1B 9F 2A
 A1 B3 7B 60 C9 D0 30 BA D7 06 61 30 CA 8A 4F B4
 83 A8 12 31 42 B1 A4 EC 39 00 86 D2 D7 D7 D6 B6
 2D F9 77 C3 08 99 99 2F 65 7C 2A 24 FB 61 AD 02
 75 5D 8C 75 45 AC 36 EA 71 EC AC 6D D5 97 04 0E
 1B 2A 68 A6 0C 8E 9D 1F 4D A2 D4 26 05 CD E2 82
 00 D4 0F 06 57 F5 47 14 36 A8 65 C8 69 16 3E 18
 B2 D9 3A 91 80 AC 6B 24 B2 E6 C7 91 0A 03 7F 13
 AC 5C 6E B1 30 0D 5F 5D 62 56 9F 09 45 B6 28 03
 1E 9B EF 06 11 A8 2D 79 C1 07 DD C7 5C E5 F9 11
 A9 0F 11 D7 DC CC 42 5F 83 79 EB 4D 75 24 92 3F
 D4 93 38 3A F4 EB 3B 8F E7 2C CB C6 7F CB D0 D1
 BF 0B 26 90 EE B3 3D 0E C4 0E 0E C6 9B C8 1B 50
 87 66 96 87 EC F6 3F DB 38 75 72 14 F3 27 64 50
 12 DF 5C 93 6E 87 6E 50 A2 A2 37 37 69 59 D5 FC
 FC 9D CE 50 22 50 7E 87 51 84 D8 78 22 FB 6C 5D
 09 61 AC FD 37 0A 01 5E B1 E2 6D A5 30 C8 FA 3F
 DA B1 35 4A 55 9C 8C 0F 46 3A F8 30 39 90 8F 2E
 B7 BD 83 F1 38 E6 F3 1C 63 27 2C 35 72 6D 8D 0F
 AB 0C D3 8D C0 41 CC 08 48 5F B7 BC 4C 37 16 78
 47 6B 85 D3 CE E2 84 FE AE 41 AB C7 62 F1 B1 BD
 65 2A 6B 1B 13 E3 B3 9F 18 52 6A DA E9 B8 46 70
 7F D5 91 1B 68 DC D4 82 32 62 16 5D 8F 07 C7 3C
 FD 61 15 82 98 01 FF C7 68 1D F3 C2 F1 B5 B9 1A
 60 FA 6C 2A A1 F5 3D 9B 34 E0 24 49 92 0E FC 3C
 A6 2C 85 D4 EE C1 8E BF 6F 53 B5 10 4F 20 0D 01
 C1 28 C1 CB 9E A5 7D F9 88 03 52 88 09 C8 45 AA
 B9 55 57 D6 24 16 BA 66 18 EE C9 06 3B 72 E1 51
 B2 BD 37 FD B4 F0 49 26 80 96 D5 E2 F8 54 30 1C
 30 E3 FA CE D8 E9 D8 45 EC 74 A6 E3 33 41 34 43
 42 6F F2 BA A9 D6 C1 0A 8A 71 8F 54 9D 2D 89 70
 1D 97 AA 02 D2 2C A9 EC EE 5A DD F8 6D D3 20 A5
 EE 70 A8 DA CC A2 CF A0 C8 D3 A6 1D 6B 31 46 7E
 44 A8 08 20 FC AF 9C 5C 9F E2 88 63 7D 44 1E EC
 3A 1E 26 AB 22 8C E1 DA E1 BA FC 7E 73 5A EA 8F
 0E E2 23 14 E2 67 BC 6B D7 84 C4 83 1E 1A B0 8F
 DD AF 4F 01 6C 58 8E 0B 28 A9 F5 75 A2 9F 6D B9
 63 1A 70 8A BA D0 4A 1D 02 2D B9 EC 57 69 69 CE
 42 2D 30 C9 1A 59 9D 5A E5 EC 73 79 3F 9D 48 58
 FF 85 6F 97 3C 5C BC 0D 08 79 B3 51 94 72 B8 DE
 FA 1F 69 04 0E 06 42 29 CF 02 61 C9 DC 57 A4 57
 54 AC 8C 45 D4 E8 62 7B 0F 4F 89 E1 FC 4E 38 94
 9D 0F 12 AD 52 60 CA 1A 8E BD 63 80 A3 F7 16 A6
 D4 67 87 F6 8D 88 EE A5 08 82 0B 51 9C A6 34 7E
 3C 83 6C C4 DC 2E E5 1A F4 C8 E4 7E 3C 03 7F FE
 BD AC DE D8 9F 2D AE 32 7A F1 4A BD 80 C1 D0 FE
 44 D2 45 79 73 4B 49 E8 EE 72 B2 3E 09 36 BB B9
 03 CD 60 46 21 88 C5 33 41 37 86 0B 22 F4 54 2A
 E6 F2 B8 03 B7 A5 4B 30 85 29 7A 79 73 49 17 41
 5C 20 B6 F0 C9 AE 48 47 9C F3 37 E4 5F 02 EB E0
 E8 AD 61 B8 CB 1C B5 71 7E 3D 53 52 0F 4E 2D 2A
 4E 6B 7F 6F 5E 39 73 A8 F8 C6 95 66 BC 96 27 7C
 2A 2E 65 52 B4 4C 7E C8 30 A0 0D 76 D5 61 B1 F2
 C6 F2 18 51 E5 32 AB C1 1D 68 99 86 50 33 B6 BE
 68 C6 67 A0 67 6C 70 C5 49 D9 38 52 D0 74 23 28
 E5 E3 F1 0C 1A 99 B2 35 1E FD 25 06 82 87 29 71
 70 DD 5D 9F 2A A1 CD 7D 8B 89 BA 3B 41 CC 27 30
 40 B4 BA 48 9A AC EA 31 DF F9 8C 73 B3 97 7D 41
 41 02 98 D5 BB CA 38 65 B4 12 1E D4 74 81 AC F4
 49 E8 96 07 44 20 FE C7 77 BC A8 B9 4C 73 52 E1
 42 F0 5F E9 E9 69 FF 56 ED E3 48 85 B6 A4 5D 1F
 3F 0A 56 2D 15 D7 B7 49 45 EA 1A 2A B1 9E 85 69
 6C 3F 7D B8 87 ED 31 98 5A 95 DE 1D A9 F4 F8 E5
 05 82 5E 15 96 F8 B9 40 D0 9D E4 A6 90 14 18 02
 60 E6 C2 1E 27 28 6E 24 3F C4 0F C2 BC C4 97 AF
 E8 EF 22 FD E8 F1 12 2C 25 A0 64 70 B5 76 13 9D
 64 F5 92 6F D8 14 1A A3 88 97 7D B9 72 82 FA C6
 53 79 26 B8 AA 1D 70 51 89 50 E9 77 1E 12 6E 44
 66 90 F5 68 BE 48 75 D9 E0 50 65 BD 38 51 51 39
 07 DF C9 EB B4 C4 97 E3 26 3A D3 B5 83 93 8E 5E
 B4 C0 31 BB E1 72 9D E2 47 44 89 CA 01 FE 6E 2A
 BA D1 16 F4 E5 0F 92 22 7F E7 2B DB 3F 6F EB 57
 6E B5 35 C2 D1 81 46 66 E1 65 D7 E0 DA 28 E5 41
 62 C1 4E DB 32 62 F0 93 92 26 9A 3E 96 7F 39 02
 B9 1F E3 80 53 90 9D B0 BD D8 9A 18 3D 3B 0C 3E
 1E CC 47 4B 13 25 45 98 9E 87 29 19 44 16 E7 9C
 73 42 07 F6 93 37 85 07 22 4E BB 19 5F E8 BD AE
 CA 64 AC F7 DE 61 7D 7C 1E 98 44 49 AD 77 DE CD
 32 E7 24 AD 3B 9E 50 22 A1 D5 BC E1 94 33 64 C4
 51 0B 33 2B 95 B4 29 85 1A FA 1E F8 D9 27 52 2E
 0C 89 51 44 21 6B 50 BB 19 5B 3C AB 2F AC 64 37
 30 1A 3D 1D A8 E1 75 66 A8 B7 B9 62 33 97 6D E0
 BA 49 E3 BF 70 A7 6F F4 AC 43 AD 1B 19 FF 6E 33
 32 EF 2B 46 EC 85 53 90 5D 7E DF 90 4A C6 40 FF
 C6 2E 12 34 22 D8 26 B6 CB 91 B5 A0 A1 27 2E D0
 56 BD B6 D6 3B 1B 8F BC 3F 86 74 A9 E9 81 C4 D5
 27 44 33 CB 28 E1 A1 21 07 20 FD 8C 33 91 82 9B
 95 69 30 99 64 7D 18 18 A2 FC 78 83 0A 0A 1B CA
 A2 3D C9 5C C7 E0 25 F9 E3 65 18 A0 88 93 86 B1
 B2 DE 68 4E 78 51 D4 F5 D2 07 22 5E 8F 81 DF 26
 56 EA D9 79 6B 2B 74 BA 86 2E A9 96 E5 37 CD 98
 53 E1 3C B7 D6 C3 00 83 7D 47 D8 9D 7D 48 FA 4C
 82 8A 08 4E C0 18 72 E1 92 CC AA E9 83 C5 13 8F
 EA EF 70 A9 A2 14 55 F5 97 FF 7C 4E AC 73 DB BA
 C3 BF ED 4A 65 BF 0C FB 1A C6 A9 F5 9E 6F 7F 5E
 C4 B3 28 D2 93 C3 E1 FB 5A 96 16 84 5A 3F D2 1D
 9B D1 F7 28 85 B8 42 C8 49 0D 3E 07 A1 07 FB 03
 CB CF 33 FA 9D FF 06 86 BC 04 0E 40 56 DE 15 B7
 65 DE E1 33 B2 6B 4F B3 EC 20 B8 A1 A2 EB 70 57
 5D A4 A2 CB 3D 32 28 64 AE 57 E4 9C FC CA 68 11
 D7 E0 3B 7C F7 2A F5 4A DA 96 5C 08 F1 E2 B7 E5
 DE B9 CF 22 2B 6C 31 A8 A7 21 1C B5 49 16 3D 9E
 44 71 80 75 4D C4 3C 8A 7D 83 31 1E 43 AE 7A E7
 C1 2C EC 4A 8B ED FC 95 D9 56 0A 1B 87 E7 20 5F
 72 D4 5F 22 33 30 C0 00 A2 17 71 16 B8 D5 95 AF
 3A 62 EF D4 18 2F DC 78 CE 72 85 65 51 06 A1 4C
 F2 32 FB C9 28 D2 9B 43 93 30 46 DB 00 6F 07 8A
 9E 0F 38 44 73 BD 7A 93 71 6D 86 51 08 F1 74 97
 96 72 C1 EF 03 3C BE 3A EB E0 F5 2E 91 27 94 FB
 78 E9 8E FB 86 55 7B F5 DC E7 B1 C9 43 E5 65 8B
 78 E3 BF 4D CC 62 EB D4 A8 76 99 B0 62 50 8C C1
 C1 91 A1 7E 95 CF 46 24 07 1A 6E F7 F1 4E 56 46
 4B F2 CC 89 E9 79 9A 79 A4 40 AA 1A 2F 8B 5A 9A
 0D 89 4B 15 DD 2B 11 1D 8C 1C 57 7C 6C A9 A3 84
 8A D6 9F 4F 85 07 D5 5A DC E6 F2 FC 76 5F 40 92
 8A 66 EE 80 7B 57 DB 63 D2 B0 34 94 6F F2 63 5A
 B1 EB D7 4B 47 C1 66 F3 32 34 E1 2A B5 E1 CA FD
 BA AA 9D 70 15 89 AE DD EC F4 3F 11 43 59 65 70
 7B 88 15 FC 6A 66 F0 C3 83 55 D9 DB C0 44 F0 52
 FE 69 4C AA 62 1F AE 20 2A 95 EC 6B 17 CA 69 50
 27 B2 80 5B F7 1B 4F 29 A8 03 BD 5B 16 72 D4 BE
 EB E3 EF 45 C4 9F 81 8F BA D7 ED 6E F7 34 B6 1E
 AB 53 79 8C E2 2E 9B AA BC 9F 4D 68 30 05 4D 93
 2E 24 51 4D DA C9 B9 82 02 DF A6 BD 61 07 48 28
 FC 0A 80 C1 FF F6 A5 67 55 8D 7B 08 77 6B B0 0B
 AA E7 F4 88 75 01 9F 3F 3E F6 50 50 94 1C 48 D9
 D7 73 B0 28 D8 88 57 FC BA 57 C7 A4 79 E6 4C 45
 F1 6E 6E E1 43 6D C1 DB 63 8B D0 A9 DE 49 BE 56
 F8 98 F7 DF 87 0D 93 FD DB 8C 86 C6 FB 42 D8 59
 41 64 C5 65 B9 97 99 96 8F 18 2D C5 18 49 F6 F4
 9B C0 C2 AB E3 1E 0A 9F AF 2C 72 FF 7C E9 73 DB
 B1 CB A4 25 A8 A1 31 C4 8F 92 97 99 26 E7 4A 00
 76 AB C3 4A 27 0F B2 DD 82 65 48 10 BA A9 77 1F
 88 EC A4 F8 3B FF 16 08 26 D5 72 FF E9 83 65 84
 E0 9F 99 F2 EE A1 9E 3E 04 07 2C AC 94 78 F6 11
 4D 9E 5E 85 65 F7 AC 34 65 E2 2A 82 6E 26 DA 4D
 EE 9D D9 75 FE D4 BF 14 A3 D3 45 DB DC E6 9E F2
 31 4A B1 58 6E 6D B1 C8 CE 5E E3 47 3A 35 07 95
 7D B1 D7 D4 65 C1 20 5C 76 BF 0E DF B4 B4 7C 42
 C5 A8 BD 85 59 7A ED EB 87 4B 83 26 52 27 C2 73
 C8 2D F0 34 DA 20 D1 6E 46 B4 FA C1 59 B4 62 74
 82 47 71 8F 58 E3 7E C2 D8 DD 76 BF 31 93 34 2F
 70 FA 1D 26 BC AB 9B F2 74 71 C9 BD B0 4B 82 A8
 35 7C 63 9D 83 3E 6F A6 D8 C5 97 53 D3 66 B2 49
 60 F6 A4 1C 30 B4 EA 8F 03 15 7A 46 ED 23 2E F5
 A1 73 14 35 88 A3 7E D6 F4 1B F1 15 E3 99 A5 42
 C8 1A 7A 74 77 D7 07 D7 DB 4A 93 E9 3C AD A0 D3
 1F 3E B3 35 8D EB F9 65 D0 CB 16 38 EB 41 FA 0E
 B9 48 68 EA DF 68 CF 6F 65 CC 83 18 CC 11 9C 41
 E6 F2 0F 73 DC 20 32 FE F8 5A 1B E9 A4 44 26 BA
 85 2C B2 78 BF DC EF 43 6D 9E 5F 1C 4D 69 36 F9
 3F 01 81 AB F6 0E 33 10 EA 36 BD CB 5E CF 17 B1
 FB 0E 81 E6 12 E7 F2 97 F0 2D 6A D3 86 E6 46 B6
 23 DF A4 32 B9 77 B3 FF BA 4C 0D 5D 6A 5F BE 4C
 E4 4D 96 AB DF 61 05 39 F7 80 70 BE 66 11 86 D6
 8B 9B C7 97 BA 4D F3 CA EC E7 24 04 A9 41 30 AC
 78 A6 56 2C 9C F2 EC 19 1A BC D2 05 2C 2A 38 21
 83 D1 01 DC 0C E5 D9 34 01 D4 B0 B6 68 10 3F D6
 89 9D B0 85 CC 4E 3C C6 A5 9C CC BB 83 0F 93 32
 F1 E2 21 E6 E1 D2 2D 4E C6 AA 8F F3 FF 6B 3D 2A
 B6 60 04 2D 14 F2 59 C5 F5 D5 18 17 BA 41 4F F1
 1F 88 3A 8F 5A D1 0A 7A 52 69 AC 00 6F D7 CC 0A
 01 C4 86 6A 78 13 FD FC B4 F9 27 BB D4 B6 C4 E8
 BB E3 2B 03 CD 37 42 31 8F 4D FB 35 F1 34 06 DF
 C1 80 71 B2 EF 86 AA E0 46 72 E0 91 9E 7B DD F4
 5F 4E 6A 85 53 36 22 1E 41 62 1E 61 5E F5 5F 74
 58 2C 3C 21 0F A8 C0 A4 3B E0 E8 EE 47 1D 08 7A
 4D 9C E1 59 C8 2D 3F BA C4 87 D7 6B 1D 45 7B BE
 BE 82 73 D3 2A F8 79 7F 6E 5E 70 0F D7 F0 1B BC
 E4 72 DD 02 D7 35 48 26 65 4D B4 AE 9D BE 52 28
 AC 9B 4C 7D BE F3 C7 1B 96 4E 2D AE 7B 99 FF 3A
 5C B1 FC CD D5 73 56 E7 BD 76 81 87 C2 FE B3 8A
 AA AB 34 5E ED 9A E1 49 FE 44 EE 5E BA 82 B4 71
 42 9A 76 59 FA 0E 1E 35 6E 38 4C 5C 89 2F CC 4A
 AF A6 6A 0B E4 65 38 EE DA 12 DF 86 15 43 CC 3A
 12 68 63 E2 C0 BF F4 4D 27 40 05 0A 8A 82 24 F9
 2A D1 F9 88 87 E6 7B A1 65 80 0A 5B A2 CD E2 6D
 0D 55 D9 94 22 72 C9 5B C1 66 FD E6 94 D4 01 B7
 7B 1D D9 3B 7D F3 05 3A 30 AF 01 21 28 B4 29 76
 D4 5A F2 55 BE D6 E2 AA 9E C7 BA 66 4D 1D 5E 08
 52 3B F5 7D 16 AD DB 24 4C 8F 9E BD 5C B1 3B 76
 BA 42 59 A0 E7 24 67 0F FC D1 00 12 66 64 63 C1
 6D 80 78 75 56 AB 6A 72 A6 DA C7 9B 39 D2 BE 33
 71 71 62 F3 FB 23 9D A4 BC 22 B7 11 B2 AC 4A 47
 23 A8 B0 7D 19 93 8A B4 D3 F4 A4 3E 2C 27 B5 FD
 61 B7 14 B9 78 06 5B 92 85 50 1E 2D FD 09 7B CA
 28 14 3E 71 31 56 C7 C6 BC FD 4B 88 FE 29 C4 36
 50 87 4C 03 D4 71 BA 13 BC C2 9F AE FC F4 B4 F1
 95 AB B3 78 6B 78 4E 5E 35 52 F6 76 33 B4 C9 6A
 EC 51 55 3F 78 AB 84 62 8E 73 21 33 CB 33 36 31
 C0 72 FE 03 BF 2F 75 68 25 04 71 F6 1D 0D 71 62
 99 41 46 38 E0 AB 88 71 BC 23 C0 F7 A0 3F E2 11
 FF 49 CC 7E 9A F3 F0 DE 18 D2 32 B4 03 7D 70 60
 A6 3A 0B 1F EF 12 65 77 F6 9E CF AE AD 75 B7 69
 12 74 8D 0F 23 BF F7 C5 F9 C6 7A 94 B4 57 4C E2
 01 A3 C5 50 05 40 00 52 BE 5A 85 82 96 D1 8A 3D
 23 90 24 77 CE 95 CB DE 80 68 7E 6B 8C 95 E7 7A
 56 A3 A4 71 5F 37 A9 9A 3C F0 05 7F D8 C4 C9 49
 63 0D B1 F0 0E 5C E5 3C B7 E1 46 43 65 87 5C 4B
 33 A1 8E F5 56 2E CF DA 3A 20 55 B7 AD 23 9A EC
 5D 45 04 11 B3 6E 5E C9 D2 20 7D 36 2C AF 96 4B
 82 2C 6B CD DB BE BA 95 EE 1E 4C E6 43 2B 51 1F
 5B 4C 80 48 A4 2F 6A F2 B0 A2 1B 9F 20 AA 8A 13
 AC AD AB 94 73 FD 7A A7 FD 40 A8 C0 ED 10 D7 69
 75 DC 82 6F A6 70 22 42 B0 C4 E3 92 F1 A7 08 EF
 4B 3A 08 6B F9 0D 80 9E 77 B5 A6 3B D7 9F EC C1
 0B 60 1D 45 66 25 24 30 EE B0 29 33 4E 97 2E FE
 D4 A1 CC 4D 13 80 7B 99 2D 65 48 61 35 31 87 21
 D2 3A 95 C6 D0 67 7C 08 2C 63 E9 AA 24 DE F5 6A
 FA A0 50 7E 54 17 F1 41 C4 2E 11 74 F6 DE FB 52
 22 BD 46 41 6D 99 38 33 FD A7 1A A3 8A 56 56 3B
 CE 1D 22 24 F2 03 13 90 ED 00 94 E6 CA 83 1C 83
 71 58 53 A2 7A 7A 0A 5D 7F C4 1B 2C A2 F6 1E 29
 2D DB D0 3C 97 19 52 60 96 15 93 43 C5 F7 0C 74
 35 E3 E5 AD C0 6E 1F 10 82 76 6A 43 95 63 29 25
 01 68 FF DA C4 81 C2 B9 9E C3 7E 3B 4B F3 08 DA
 AA 0C B3 83 5F A7 E2 DE 13 D4 95 C0 E2 EA 60 F4
 57 B0 E6 40 5F D2 D2 0F 56 E4 54 2E 5E 7D 67 03
 55 D2 F3 B3 52 64 84 E0 A7 0D 09 32 40 42 E8 8F
 12 70 67 E9 78 15 22 55 EA D5 09 6B 9F 0F 95 F5
 40 B6 71 D0 ED 1D 42 F6 66 F5 70 3B 72 BE 0A 43
 22 10 D0 03 F5 5A 61 F6 46 CE 7E 27 E7 A0 D3 2A
 C2 39 97 15 E0 66 87 CE BC 68 21 9D FF AD 1B AD
 9C 69 77 05 18 E2 9A BA DD FD A4 C1 C5 4A 33 82
 0B C4 E4 57 F4 AC C6 B0 52 35 42 8D 7A 14 18 9D
 50 34 13 71 51 61 37 40 02 53 43 00 5E D9 1D 79
 27 C3 52 E9 B0 81 B8 53 87 F8 FF E9 D2 36 F9 4B
 26 3A 66 08 7F B7 FE E7 59 68 5D FC A9 35 11 BC
 87 9D 41 45 52 DF D9 8E 63 99 A8 63 77 DE 75 20
 7E 12 1D E0 0D F6 E9 DF D1 E1 B4 5A 93 D0 76 E0
 16 6C 5D 85 87 71 E7 43 96 E6 E1 E2 EA AE 2A 54
 47 98 2F B7 81 2B DD 86 E5 E2 A3 C5 D2 90 77 72
 2B 67 24 E3 99 69 FC 69 B8 64 C7 02 1F C4 C9 08
 80 1F F5 C8 2D 7C DC 20 4F B9 8D 27 57 43 A5 33
 9C 91 A8 EE 2D 3C 7E B8 2E 9F AF EA F6 D1 AA A7
 1F BB 8F 6C D4 65 06 89 21 E8 10 13 7B AA 7C 47
 B0 4B A7 C7 37 1B BE 46 3E A2 C1 AC 96 05 E6 E0
 80 C2 3A D8 27 DB E8 91 9D 63 81 CC 91 31 4E 77
 94 24 C5 62 6B DB 3A 67 4E 91 76 0B D4 DF F9 51
 4B F1 49 4C 68 E6 D0 6C FF A2 5E EB 65 06 B6 32
 37 8D B7 84 66 21 AE 34 38 52 A8 38 BF 7E 82 6E
 8D 07 E6 BE D6 40 A4 C3 E4 7B 4E 47 B6 B9 CE 54
 14 06 DE F2 FC 00 45 55 EE E8 95 9F E3 8E A9 7C
 13 64 51 23 97 23 AC AF 53 EC 35 07 05 77 A7 B4
 7A E3 EE 9A F9 02 92 81 07 E6 8B E1 D7 7D 2B B4
 7D 36 40 6A 56 0C 84 D9 8C 15 7C 52 2E BF 5F B5
 BF DC 83 9F E8 D7 EF F7 63 62 04 A4 B4 63 C9 3D
 98 31 B5 B2 50 48 74 61 4B 7D 17 2F 2A 9A F8 F1
 38 19 30 00 0E CD C3 67 1C 32 1A A2 01 A5 E5 CA
 4D 63 54 68 A3 D9 12 3E 8C 3A 5D 31 48 B4 A7 7F
 19 A9 7C D1 B1 24 4F 37 B9 C6 C0 B3 E2 47 35 53
 FE 08 E4 97 D5 83 C2 82 55 40 C6 8F ED 16 86 FE
 3B DD E6 86 1E 4D 05 FF AE 94 C2 A0 43 59 C0 C3
 0D 77 8E 69 C2 4C 4F 4C B6 DD C2 71 57 95 F7 F9
 2C A0 C9 29 F3 5A 8D B8 D8 24 90 94 B6 C7 8A B6
 27 C2 B2 AC 22 15 B2 C6 E7 0E B8 E2 32 F8 32 8F
 DC 2F B5 71 B2 8E 58 B9 BB FA FD 46 4A C6 F8 A7
 04 FE 83 7D 6A BC 47 14 F0 8F 3B B6 D5 85 5A 59
 E3 EE DA 5B 86 9C 00 01 A2 E5 99 68 79 59 44 32
 9F 18 F0 6E F1 F0 C1 63 31 97 20 DE 4D D3 3A E7
 BC A4 21 DB 3B C1 BE 81 FE C2 E3 0D D6 E3 D0 33
 08 97 A1 6E 45 2E 77 9B BF D1 96 FA AF FF 0A E1
 DB 4E B5 EC A8 B6 B3 ED 61 88 A5 10 F4 16 E8 2D
 B5 69 17 A1 D5 D3 AF 28 B5 85 E0 97 3F 0F BD EB
 86 DF CB 5E EE 44 56 6C 36 0D F4 B8 5F C7 0B A2
 DE 48 20 C8 16 75 C8 44 D9 5B 78 23 7C CB AD A5
 97 32 75 AA 72 67 63 0A FA 64 56 DE 67 6E C2 44
 A9 4A C2 B1 2C E6 B8 CA 96 BE E1 94 00 9A CC 65
 79 5B 8B 0E 31 09 3E 3B 28 15 8A 9F 7A 47 37 9E
 31 DE E0 53 FB 83 16 F2 21 7F D7 F5 0D E9 05 8C
 93 2F 07 45 1C 7C 54 FC 5F E0 E3 9E 8F E2 6E 5C
 F7 E2 B3 5E AA D9 0F 02 CC D0 34 59 C7 CB 2B 55
 29 4D ED 2D 4C 36 64 E3 19 58 53 B0 3F FA CB 1A
 20 0D 9A 10 2F F6 8C B5 25 1A C6 65 F0 C7 13 E3
 F9 E3 64 34 20 EE A3 5B 7F 90 5A 33 5C E3 E1 D1
 E2 07 18 D7 EE 9C 45 88 E4 5D 69 75 CB 1D 63 7A
 59 49 C3 FD 6B 3F 6A 82 5C 5C CA 55 9F 70 F1 63
 7F 7F 91 BA 5F 32 D5 69 16 53 77 E6 A1 C7 29 98
 80 8A 0B 86 AA 76 BC 81 F8 9E AA C8 93 AF 17 8F
 07 69 CC 50 A3 49 2E E4 F8 FB 53 46 86 7A 5E 9C
 04 A5 D4 C4 88 47 5E 65 B0 4C 57 F7 5E 0D 42 61
 75 37 43 3B 13 88 B4 23 76 66 69 91 05 21 18 5A
 3B A9 C7 71 3F B0 9D 16 3E 16 ED F7 FF 99 1A 5E
 96 72 63 C2 43 13 E7 32 73 32 5D B7 4D 1E E1 CA
 EC 14 CB 39 F0 D6 4C A1 61 1B A9 FF 34 4D 77 2F
 5F C7 DB B6 7C 21 00 17 B8 78 01 B9 29 C0 9D A9
 22 3B 5F 74 2C D9 F0 C2 F6 D0 3D 7A BC CE 03 B5
 32 EF 43 82 E4 BC 78 68 26 17 B5 47 57 68 BC 61
 DF E0 8B F0 C3 C4 10 F7 64 9D 24 0B 52 9E 2B E3
 92 B1 65 80 6F 67 F9 B3 CB 37 04 E1 14 26 EF 15
 CC 89 D4 C8 7F 5D AE 18 9F 68 40 2C AE CB 79 3A
 D8 62 11 11 3F 8F CA 10 A4 F0 44 BC FB 98 68 58
 40 6A 8A BA 5E 9B 9B 50 02 7D E6 3A 3F 68 28 63
 F5 B7 D6 21 66 DD 69 7D 53 1B 9A 75 88 05 92 94
 4F E8 C3 E4 22 D6 41 3C D0 6A BE 97 DA D8 62 88
 C8 CF 9D F9 4D 31 46 21 3C 5C 07 9C F5 C2 8C 11
 9C 84 D0 9E 68 45 D8 B4 28 5D EC F1 10 BD E2 9C
 2A 00 AD 8F AE E3 70 C4 AF 50 9D C4 72 93 FA BA
 17 B2 AC B4 C4 E2 B5 F4 27 23 FE A9 F8 B1 C9 24
 D9 79 9A 96 91 F0 EF 61 7A 4B 61 B6 18 2F 80 13
 3D AD 90 70 CF 11 57 1E 8C CA 99 0A 17 62 FA 91
 F9 7E E8 05 53 FD 54 33 54 B9 E5 C5 53 99 51 15
 3D 44 52 48 25 F2 4D 2E 62 D7 8B 8E 57 D0 AD FE
 B7 E2 EE 6F DB 4B 18 64 72 A0 B4 FD F1 60 0C E2
 5F B0 E4 AE 45 ED D3 31 2C C2 F7 C7 96 8E A4 C8
 B0 69 F2 F3 40 14 AD 0D 85 FC 6B EA B4 5B 84 65
 FE C4 D6 AD AA 92 5A B7 BB FD C1 2D 84 E0 6B 41
 C5 0D 13 02 1F A8 2E 19 15 8E 7A E2 7F D5 68 5F
 99 F7 C8 F3 A2 21 58 50 33 43 A1 BB 24 35 B0 6B
 0C B8 92 74 FA F8 33 38 8D 67 07 16 09 FE C8 ED
 59 E6 27 9F 9C 62 1D 00 13 28 A0 AA 6A 92 9B 4E
 4D 22 CE 07 81 12 E4 22 4E 37 78 35 92 02 E8 75
 A3 F7 44 43 DC DD 77 55 53 DD EB 47 40 59 34 59
 F6 73 45 66 A3 E0 46 1E 19 15 DA 0C 3A 49 5E 54
 AF B2 3C 5B 78 F9 96 F3 C7 4C 19 92 CD 91 A4 87
 CB F6 52 C5 DD 76 33 64 F7 AB 7A AA DE EF 5D 1A
 A4 C3 05 AC B8 99 89 93 97 4C 5D 76 E7 64 3B 40
 F0 07 14 D3 A9 B0 2D 26 4C 44 0C 2C C3 29 1A 54
 74 3E D9 B0 F7 DE 4C 0C 07 E6 F4 EE BC C1 27 CF
 FE 25 67 CD 5F B3 69 E7 BE 95 E8 EC 60 67 DC 95
 E1 92 14 E0 DD 48 A7 6F 16 2E 46 B2 F7 C7 D7 4F
 89 BA 80 75 A2 D3 FA A5 73 65 5B 9D A6 3F 75 45
 6D 2A 36 23 DA 4B C4 B2 88 C9 2C 60 4D 18 07 93
 88 28 AA B3 E5 E8 01 E7 CA 25 F2 8D B2 AF 23 2B
 EF 20 C5 0B BF B5 8D 7C DD D5 8F 36 7A 21 40 DE
 F5 73 F5 33 68 E4 EF DC D9 6C D4 C2 7A E8 10 CC
 24 6D 32 55 16 5E 54 86 66 56 14 31 E6 8B 8B 60
 84 89 FB B4 02 93 29 D1 A0 57 C0 6B A4 37 C8 33
 1C DF 33 38 0C E4 AB 58 74 9F C8 B2 BB F6 B5 7A
 8F F7 F9 F7 A3 EB 38 EE 2C A4 76 7F B4 D8 CB A7
 73 DB B6 31 12 08 76 62 AE 21 75 D3 5B 5A A8 53
 55 19 20 1F EE 98 1D 4A AF 0C 5A CD EF 9C 41 CE
 97 7D 9E 27 7A A3 6F 21 22 B9 62 93 B2 DD 98 42
 6A A2 C6 09 21 76 10 AB 12 63 5F 0E 9C 76 98 B1
 48 0E 4C 7B CE 44 EF 1C A8 C4 BF C5 2E D5 B3 00
 B2 23 AE 80 9E 4E C5 B6 74 01 77 A4 4C EE B1 97
 5E 9B 79 FE 01 0D CA 59 EF A8 EE 88 1A 54 35 DA
 35 CD 87 25 0B 43 FE E0 B8 11 D5 A1 1D 14 6C 60
 2B 97 E1 36 4E EC 45 C6 25 CD ED 95 3C 08 7F 05
 D4 E1 FD FE 07 FA CD 87 DA 1B 6E A5 B5 9A FA F6
 BF 61 0A 4E 2C 1B 79 16 B9 49 C8 6E BA 02 84 98
 C4 DE 69 78 22 6D DE 28 CC 2F 65 EC 0D 23 2E 41
 77 AC F5 70 82 6C 8A 0D CE D0 7F 81 69 B3 D5 F4
 9E 2B 54 6A 6A 69 5B D9 C2 6F 8A 69 DB 6E 55 46
 79 B1 3F 02 E0 FE 92 95 1F B6 D8 C6 EB AD AE 03
 70 79 52 54 A2 3F D7 B4 BF 81 B0 87 08 FE 10 CD
 FE 43 32 B0 84 2F 78 AF 81 A1 45 CF 6C 12 82 4B
 EA B7 AB 6E 25 84 AE 5D 19 E4 B5 B0 91 AE 63 62
 C0 1C B5 07 C1 5C 85 B3 92 2D 15 F4 5B 89 70 57
 CB FA F1 CD F4 A8 75 2D 94 B3 69 3F CD 5D BE 4C
 B5 71 18 FE 4C E9 13 FA 70 7F 71 05 7D 42 62 4B
 C0 95 19 20 E5 68 76 C2 A6 42 56 51 34 29 8A 17
 90 D0 BF E0 DB 96 83 C4 69 74 84 32 7C 0F E5 08
 04 CB F7 13 AE 21 70 B6 8C 48 5C 18 29 B5 6C C3
 B1 51 16 55 7C 5E 02 74 40 72 60 41 0D 3B 36 45
 FB 18 D8 D5 19 EB E7 41 92 10 7B 63 56 E1 EF DA
 E2 28 34 EB C0 DE F4 A4 53 E1 72 03 42 95 D9 7F
 E7 38 76 6D 70 12 F1 0E BD BF 40 87 DD 6A 77 D5
 05 02 D6 93 B2 54 A0 A6 E2 DC A8 B3 BB 93 5F D5
 37 41 F0 68 C6 D2 7C 3C AA E1 B3 E1 10 1F 27 88
 9D 40 F4 9E 6E 6B 7A 87 EA 46 F0 11 A0 FB D9 AB
 72 C2 EC 3F 07 0C 46 9B 6A D5 7A 6D 61 CA 4F 7E
 B2 E0 7B 38 CA C0 8D 1E B8 5D AB C3 1D 78 48 48
 DA D1 71 DD 97 B1 2C FF B7 B9 40 E0 C1 FD 26 61
 BC 1E 9F 62 67 84 7E 5B
* End 2448883256 2693244469