* LTspice Encrypted File
* 
* This encrypted file has been supplied by a 3rd
* party vendor that does not wish to publicize
* the technology used to implement this library.
* 
* Permission is granted to use this file for
* simulations but not to reverse engineer its
* contents.
* 
* Begin:
 AE 5B 63 B3 69 8A A7 B4 EE B1 F9 E6 3F B9 A2 1A
 C8 7E 65 13 F8 B5 29 20 6F A8 66 FF A7 1B 6E 0D
 67 E5 24 F1 C8 86 8F 56 A5 D8 2C 7B B4 04 C5 70
 1E FB 97 24 E2 F8 95 49 93 AB 65 4F DB 79 21 69
 2C 13 BD 73 B0 7D 99 F7 41 DA E7 47 26 AB 06 82
 47 EE 8E 5B AD B7 4C 18 D9 56 5D B9 FC 42 C3 9E
 57 EE FF 71 64 85 8B 95 FD AE 06 21 97 94 FC E3
 A3 43 6F 76 49 A1 36 0D 16 EB 14 7E B2 C9 AD 32
 73 7A 17 F5 FA 1B 79 64 B3 AF B6 19 4C 01 6D AF
 EF 7B 62 6A 49 70 73 B2 83 08 79 DC 81 CB 79 94
 18 B6 58 02 99 F8 6F 67 71 85 CF 12 E8 AD 74 34
 A6 A1 10 E5 CB A8 19 F6 2D 85 E5 7C E9 FF 02 D8
 CC CB 58 3D 57 1D 6E 47 D1 95 7E 24 18 86 99 3B
 8B 6A E7 0C 22 56 78 B7 57 C1 BE BD C6 03 FE A8
 1C 19 4A 26 27 BB 9C 10 3A B1 E1 AC B6 A9 60 41
 DD DD 9D F6 9D 93 A5 E2 68 DB 7D B7 59 9E 12 91
 3B 23 AC 55 DF 49 FB 04 EF DF 6D BA 04 96 1C CE
 72 D7 10 B0 DB 71 45 D4 47 A5 48 A9 8F 3D F8 8C
 0B 27 13 C1 FC 32 66 63 52 27 69 93 59 1F A1 A0
 47 13 73 07 96 13 CD 7B D9 AF E2 69 46 2A E5 8E
 F8 82 79 D0 CB E5 68 5D 0E 69 DE EE F1 14 6F D8
 DF 92 C8 DF 15 65 87 9A 7C 77 50 C8 4A D8 1A 79
 F7 3A E9 CE D3 E6 AD 12 E3 CA DE F3 F0 E5 E3 CF
 87 39 5E 06 C6 8C 96 11 8F 2B 9D BD FA 7D 3F 88
 F5 24 26 06 4D 4A A3 F8 0C 65 73 9E 4E DF 76 4E
 DF 28 34 B6 FF 99 75 A8 9E B1 86 61 7C F1 2C 7D
 43 F0 6D F0 31 35 6B 65 2F A5 4C 84 5B 5E E4 C2
 75 B9 7D ED D1 F7 3E 69 F8 5D A5 3B 8C E6 97 AD
 93 62 8D 1F AD 72 66 01 29 7D 35 A2 0C 5F 8C 42
 9D 01 51 87 FE D9 90 47 93 3E 7C 89 6F 5B B8 43
 27 F2 BE 47 14 CF B1 CB 53 5B BF 02 74 D9 C1 EE
 B0 AB D5 6C 93 47 EE 76 00 56 C6 AD 3F 3C A7 EB
 34 67 8B 93 19 4F E1 83 C2 D8 1B B5 43 A6 CC F1
 5A CD 88 B5 C2 5E 18 CE 65 F1 A4 FF 91 58 F2 E2
 C7 AD 2D 65 12 5B 41 64 51 90 D3 C2 30 25 48 A8
 5A 3A 1C D1 16 21 89 04 A7 D1 01 1D 69 19 B7 E2
 9B 15 4D E2 C7 54 1C B3 77 F9 A9 B8 5F 75 7D FA
 3F FF EC EF 7E 6B 2F EE C3 77 B0 57 7F 46 8C 94
 2E 7F B2 DE 24 68 35 C8 87 18 91 7A A5 7E DB 91
 C3 A1 15 C2 2F E1 F8 E4 01 2C D8 34 FC 4F 6A BE
 61 E0 D4 FB 9D 4E A0 72 F5 7E 17 15 DC DF 3C 23
 1C BE E7 B4 C7 63 23 D5 D3 14 DB C2 91 C8 3D 96
 58 71 B6 30 BA 72 96 5E D3 CB 21 09 BF 1B 57 73
 7B 2C 19 13 71 3F DC 19 F3 29 47 78 E9 A0 E6 BE
 96 56 C9 B0 09 66 79 B5 E6 DA F6 51 B8 9A FF 24
 56 40 7D 7C 03 8E D7 6C 1F 10 84 DC B9 9D D0 72
 82 2A 1A 7A D7 74 36 BD 99 EF 3C C6 25 CB F9 64
 70 DD A8 79 F2 AB 5E EF 66 F8 89 F3 0F 1F 4E 14
 2C 8A 32 C2 1C 30 9F D0 CC 93 7E 8C 6D CC E8 42
 E4 25 09 2A 6E 86 38 48 DD 91 60 2D BA 91 A7 2B
 86 9D 5F 56 E7 36 C4 E5 2C D6 BE A8 FC 59 A1 EB
 C4 DC 12 3D F0 1F 43 A1 83 BF 46 BB 0E C8 DF 0B
 C5 65 E7 75 29 BD 66 82 28 8A BD 0C 06 9F 4B 02
 5B AA 39 73 FF 3D 12 71 B4 08 49 EE 4F A5 3F 1A
 5A BE A5 FB E1 C1 8B F8 49 34 CA B4 9B 99 02 EB
 C4 B3 98 C3 C1 EF A8 BC 0A EC EA 03 29 2C 35 77
 11 B3 FF EC 77 F8 76 61 12 76 17 40 0E 3B C5 7F
 65 E4 49 5E 84 8E 25 8A 88 4C BF CF 1C F6 4E ED
 06 33 7C 98 45 37 AE A7 4C 5C 1D 8C 5E 35 1A 38
 66 F5 0C 56 DA 69 0F 0E 8A F0 FC C5 D4 7E 7C 0B
 65 68 6E 94 A8 E2 4E 24 D0 B9 F1 F8 B0 17 16 34
 AB 08 DE D8 66 2C A6 62 CD 3C D7 E6 20 2E 48 5B
 01 04 EA 26 F7 E1 B9 76 6C 07 CD 21 7D 72 1D 78
 17 18 7B 1C EB EA 26 AA 58 8F E6 8D F8 21 A4 3A
 E0 05 E0 68 2D BB 90 8F 85 5C 8F 7C BD 66 77 F6
 E2 E8 BE E5 FD 0D EA 00 2B 9C 9A 69 6D A9 DC 25
 F2 CE FD B4 EB 77 D9 26 4E 14 CE 97 63 01 8F 81
 92 D6 CB 14 95 65 AE 38 D5 35 1F BA C4 2A 15 D0
 51 E3 99 52 BF 3E E5 8C EC A2 9E 62 24 80 4A 56
 F5 73 BA 22 D1 F9 D1 79 E4 E0 A8 1E 18 1C F8 3B
 74 32 0D B3 DA 89 3E 09 8C E4 D2 EE 6C 79 CD FE
 30 9F DC 51 A2 F8 F4 D4 03 DD 6D 2D A7 CE 0D 3D
 8B DB 84 0A 41 7D B1 27 C1 2B 6A AC D1 55 C7 D5
 8E 7E 73 46 15 7B 46 2B 4A 7F 38 3A 2F 14 DB 35
 03 69 98 A1 17 A6 DB BF DD 55 FC 76 5F 1E CE 5F
 0B D3 7D BF 1A 56 1E 6D 8D 65 F3 51 43 9E 6E 1A
 DC CE D1 AA 6D 5D F4 FB 1D D6 AB 30 E1 94 7C 4C
 D3 71 D9 53 34 E9 AE 5D 31 DE 79 13 4F F1 5D 6D
 B7 6F 08 73 6C 41 5D EF 18 76 CC 28 B1 E6 59 9B
 46 01 05 0E 09 AA A2 AB A4 8B 43 DA A3 75 65 1D
 5B C5 B1 F9 59 8F 7A 85 D4 D2 EB 81 BE AC DE E6
 D8 D1 86 2D D2 72 C8 15 3E 05 B6 29 71 51 56 96
 C6 03 7C FD 60 D0 09 45 74 AD 71 38 4C 08 9B 76
 7C 69 30 DF 61 4D D4 51 FF AB 7F E8 7B 91 A9 D8
 04 EF 9A 0A 78 F4 B5 31 96 D7 47 C0 91 74 EB D3
 9B 91 09 74 9C C4 A2 14 7A 33 4D 17 61 89 43 C5
 B9 AF 0B 97 DB 5F 32 BA 89 CB 60 98 AA 86 87 73
 6B 79 B7 AF C8 3B B3 E3 D8 74 01 CE 04 00 1C 1E
 EC B9 11 CD BE A8 09 FA 69 F8 DA D5 C3 56 61 02
 90 25 92 B2 EA 98 81 7C 21 AC 0E 62 5A 92 B0 9F
 32 90 39 4E 48 4F 0E 2D 9C 36 F1 BF 39 95 D1 4B
 C5 04 DC F7 2E 55 15 0C 60 08 D9 6F C5 3F 1D 6F
 25 9D 48 AB D9 96 E2 C9 9B 95 EB BB 03 5C 1A 38
 65 BA B8 D7 31 9B CF C1 22 5E 39 A0 B7 31 67 41
 A3 56 99 79 09 80 03 01 F2 C2 6E 00 C4 E7 D8 D0
 10 0C 4E 25 E3 34 12 3A 0C 9A 33 3C BB CC 70 33
 80 9D DD 3E 25 7D C4 1A 22 44 24 5B D0 D9 C5 63
 B5 60 43 56 8F C0 E4 96 31 1C BB FC F8 72 82 EF
 9A CC 63 F6 3A D4 23 0D 74 3E A7 50 B7 A1 F4 24
 E3 D5 BB 5C 47 4B B2 5D CF FF F7 70 CE 56 17 AE
 6B A5 70 8F FF 8F 86 0F 8C 82 35 3A 91 03 5A F3
 02 FB 87 C4 0D 64 9A A8 76 01 01 06 75 E8 15 96
 1B 1A CC 92 57 A7 F0 E0 4D B7 3C 32 D1 A6 CD 63
 4C AE 41 7D B7 F9 F8 9E 4B 02 48 42 6C 41 16 AB
 41 BB D6 49 71 CE DB 63 0D 17 6F 59 4E 3D 92 0D
 B6 1F 3E 99 CD C4 8E B2 49 C1 3E 11 AF 44 79 F0
 1E 93 8E B1 6C EE A4 60 70 CA 16 EE 27 EB FA 4D
 E7 D1 E5 18 39 5E 98 F5 51 C0 E7 90 DC DD CC 19
 CE 89 46 28 F4 5F 7E 51 F9 79 0B 18 01 4E E9 D9
 F7 D6 95 FB 2D F2 5E 57 F9 E1 33 32 B1 E3 BC 92
 62 EC 86 40 EB A2 83 A8 DC 83 D1 5C B5 F2 17 54
 F1 B6 15 21 77 93 D0 AD 01 2F 53 26 66 F8 54 14
 E2 9A 62 4B 37 27 62 FB 1F E6 11 A8 4A 83 87 FE
 9B 1A DF FC 38 69 FB 1D C9 08 7C E2 33 D8 20 D8
 83 B7 BE EF CA 82 E5 F5 F4 40 E9 E6 93 84 5B AE
 7D 8E 5A 27 C9 5F 5E 0E 12 FD 1A 32 22 5F 19 C7
 CD 37 99 58 8D F1 6A 97 F1 BF 51 1B 62 8B C0 83
 DD 4E DA 19 B5 94 38 31 DD 82 F5 95 48 6F 08 63
 C9 54 43 62 6C 86 39 6E 32 EF D3 05 DC C7 1F 6C
 85 EA 75 0B 1E 03 C3 94 7B 59 05 AC C1 B0 53 1D
 2F DD 4A E0 1C 49 C1 47 07 FF 14 8C 4E 5C 8A EB
 6B 2D 47 4B 1F 27 DD 36 60 4C E1 F1 09 3F F7 21
 53 09 C1 04 C0 0E AE 49 8E 46 4C 2F 01 15 05 D2
 C7 25 64 99 75 67 41 A9 86 BC 84 25 17 1D 3A 60
 72 38 38 3C 7F FF 6D 7B F1 AC CD 35 07 2E 51 1B
 65 6C 80 C8 8F 3F 1F 31 94 00 E9 F6 B8 43 8F A4
 92 A6 D6 9D 71 5B 1E 6E C3 76 1F A7 71 88 85 C1
 CC 81 38 C9 24 3D 8C 2A 87 0B 77 77 C8 D4 45 E5
 A0 8E 8D 53 36 C6 C7 09 10 68 A3 81 BB 4A CF A5
 F9 A3 AF 99 3A A0 E6 62 9D B3 0A 54 6B 93 B6 32
 CF 00 8E DD B6 03 1A 66 0B D4 47 6B E4 59 E8 2C
 32 42 AE 77 0A 27 0C 9B 04 E6 3E 2F BE 4E 5F 11
 27 55 00 0C 23 E3 D5 5D 14 FA 78 15 F7 A1 96 E2
 84 00 C7 78 96 2F CF 55 28 5F 25 28 52 0C 10 A1
 0D B2 E2 A4 B6 2D 51 1E 4D 82 B7 C9 66 6F 50 48
 C0 7D 64 AB DB 98 51 9D 4D 04 F5 58 17 B1 34 EE
 F0 BA AE 68 04 99 DB 67 3D 50 E9 EA BC 22 95 81
 F0 22 AA 67 B3 E5 75 AA 9A 74 D7 EE 3F 1A 1F B4
 6F 0E 40 EC 52 8B C6 E3 20 B6 D8 9B 8D EF B3 16
 EF 14 9E 4C E8 72 E6 85 BB 56 92 55 D2 6F 18 66
 4E 1A 9F D3 28 37 5E 89 FC 37 44 1B 8E 35 1A 76
 C4 52 AA 7B 0E A3 A3 D9 04 E1 41 D2 4E E3 D9 06
 92 C1 64 07 20 EC E0 FA 62 7B B0 65 B6 54 BA D1
 A2 D5 F6 4B 2E BF 1A 80 70 31 E7 FA E7 57 0C CD
 9C E9 0D 1D 67 9C 7A 36 9B F7 07 B1 AD 96 F5 E6
 1C 8A AB 75 7A 77 70 41 8A 2E A1 D8 66 87 86 8C
 CB 77 D9 A7 C5 C5 79 93 61 9D AD 08 9D 79 78 84
 DC 7D 7C DC 8F B9 BA D2 DE F0 A5 42 1F 95 BB EE
 33 C3 44 C0 DF 6F 66 DA BA 21 41 E7 E2 C7 C8 40
 62 5E A5 F4 CF 76 8A 6B DB 30 3E 9C F4 76 60 37
 AA 85 41 96 9D 81 6A 19 04 7A 3D 1F 24 69 CD E0
 59 D6 F5 1B AE DA 31 17 90 1F C6 FD 0B A1 73 A1
 B9 31 66 E4 09 60 9E D6 2D 15 03 CB A8 62 F3 22
 CE 21 9A 0F D9 9F 75 F1 DD CE 8D 44 65 1C 71 4E
 41 BC BE 4E 18 19 14 16 68 28 1E A0 7D 89 B9 4B
 F6 63 2A F4 42 CE 1A DB BE 03 BE 6D CB 7B 51 A8
 83 1A E7 C6 00 6C 76 E0 DB 92 82 C2 6B B0 8B 8D
 BA 43 5C A5 84 0F 4F 1C F6 20 8E 30 45 81 54 C2
 66 D6 88 B7 37 C8 6C E7 18 65 1D DD 1D C7 04 27
 AF 38 AD 3C 99 FF 8C 12 CA 07 AF BD 85 A0 25 D7
 13 76 C1 2C DB EA 48 E2 85 03 98 78 E4 4E 74 64
 9D 19 5F FE AB 9A BB 42 37 33 57 5A FC 13 4B 67
 FC 34 88 43 B3 DF 02 D9 51 A9 D9 CC 98 5C 23 38
 FF 28 0C BA 0A 9A 08 FC D1 26 AD DD DE B1 2B 46
 34 79 F0 C0 4F 7B C4 FE 2F 78 85 4B F1 17 34 C4
 C8 93 DA C8 60 B4 CB 62 0D 42 A6 CC F2 91 A9 12
 05 4C 22 23 6A E5 34 02 66 DD F7 87 21 5A 05 65
 8F 38 8D D9 44 BD 2D A0 DF E5 F1 E6 56 7C 6F 47
 C8 AD 3C DD 3E E3 72 0A 2A 16 2A 73 A3 18 6E 6D
 32 0D 1D 52 F0 96 94 78 7D 74 79 F3 6A D1 C7 94
 1C 9A D4 65 2E 3B 12 46 33 21 92 A0 11 17 F1 3D
 2E 08 69 45 4D E9 88 F8 EA 8B 2A 37 52 47 1A DC
 DD CA 05 FA E8 32 50 DF 50 29 81 84 EF 47 18 F1
 6F B2 9E 16 E4 37 2C A1 73 5A 70 F4 41 FF 3F 26
 12 B8 54 A7 5F FD FE 12 A5 0E 54 E1 B7 92 08 8B
 C3 75 02 0F E4 8E 4C 75 FA B1 7B 1B 28 56 B4 22
 91 94 87 F7 C0 04 12 8F A5 48 65 91 10 79 5C 3F
 78 F1 39 94 7D D9 CF 36 17 0F B8 76 0A E1 BF 80
 A2 E0 7B 82 3C 83 D4 FD CD E7 41 00 E3 D4 92 F6
 F2 7D 7D 65 BC CB 75 0E C7 B6 93 FF 30 9C 72 1C
 83 13 28 4B 75 93 30 3A 0C BE 80 B0 27 43 44 E6
 AC 71 CF 83 28 FB E0 4A 75 AC EA 29 90 8C 1B 12
 77 FF 52 2D D2 03 A1 C6 8C 08 AA 8C 0A F7 6A 3C
 64 57 F6 33 EE 17 B6 18 51 26 1D 02 C8 2A 60 3C
 38 59 E8 88 26 B0 38 A2 6D CB 83 04 E3 9B E1 94
 35 05 B7 15 8F 53 BD DD 75 0F AE 04 C0 CD 31 84
 6A B1 48 79 0D 7A C4 C3 D8 CA 13 8B DF BF 67 CC
 50 96 CA A3 BC A4 31 00 DB E6 FA D7 B2 5A EB 84
 14 25 02 6A 1D 55 A2 4D 84 BC B6 2E E6 74 C4 22
 90 81 70 2F E8 CC 0F C2 FD FA A4 2B D2 28 A9 B3
 4F 13 9A F8 CD 5B A0 82 EC 29 DA B4 53 60 98 0F
 4F F7 7C E2 F4 BF 32 43 73 8F 26 43 D6 91 98 45
 57 70 C0 87 57 38 8E 00 D8 E1 39 7B 88 0B DD 7B
 E9 B7 90 A1 63 68 B7 E9 FE 8F 97 EF 0E E8 D5 6A
 70 0B FF A9 A1 88 2E 7C 6C 10 87 83 8C 93 49 4E
 54 2E B4 3D CD 87 D4 C7 25 10 5D 15 3C 7E F8 75
 D1 7B 8D F3 2F 33 8E 1B BD E5 25 32 57 E2 C1 D9
 C2 92 53 A2 B4 BB D2 60 DF C0 76 C9 49 7F F8 53
 82 4C E5 29 DE FF 03 A5 ED 57 B9 CF 67 47 09 C5
 B3 EB 54 83 BE A2 90 14 90 EF D6 9A 31 74 31 A3
 7D 29 7A 0D 9C 96 67 C5 E3 0B 28 79 37 8B F1 61
 D7 43 A9 60 F0 6F B4 6A D7 F9 B1 01 46 E6 FA 0F
 12 2F F9 F9 3A 3D 41 7D 9E FB C5 54 E4 53 E2 FE
 41 FD 55 F1 9A CD 3A 78 F7 8E 8D 75 75 AA B0 34
 29 A0 84 CE F9 6E CD AC D0 46 BA 30 5F 16 01 23
 47 D7 53 2E 8A 6E BB 8F 3B EF A9 FF 19 DF 06 12
 5F DB 60 E9 10 D0 8C 24 0A D4 62 23 EC C8 36 07
 AD 62 77 43 DD AD 7F 01 E8 00 C3 1B BC 39 64 CA
 35 8A D3 6E A8 96 FE 17 2F 9C 6B AA 26 11 AA FC
 16 B6 38 80 8D 24 26 F9 A4 1B 65 69 55 04 85 4E
 7A 4C 8A 3D E4 47 DA E1 7A 3D 54 3C BC 0D D6 00
 73 94 F9 9F 2C E2 A4 35 E1 89 B2 6A E3 DA 23 5E
 E0 1A E6 F1 D0 47 CC 97 CE 0F 01 A4 FE 65 B3 23
 41 A3 60 30 70 9E 13 D2 90 01 8E 81 3E 80 81 8D
 EE DF 1A 36 C5 3E 1A A6 8C 57 C1 DF 85 06 86 D5
 DE 03 C3 44 83 01 C1 D4 20 61 BE C7 FB FD 68 31
 05 40 6C 7F A2 37 32 5D 54 73 2E 3F B3 FC 25 CF
 17 46 43 26 98 0E 89 B4 92 16 82 36 5B 8E 19 FE
 51 66 29 40 A4 B7 ED 9F 80 18 06 B7 7E E6 E8 0D
 D7 CE 19 49 0F 06 9B 4A 2F 5A C1 8D 79 E3 1C F1
 34 48 68 10 FC C7 03 FE 12 7A 67 B8 00 DB 92 76
 C7 C3 B7 D2 0D EE DB 91 3D 40 DF 27 87 2F 68 1B
 1B 8A 10 9F 74 7B 31 33 1C 2A A0 A7 3C 53 E4 50
 1C BD A0 5A 5B B5 AD 52 C4 33 93 5B 7C 31 E4 9D
 1F 7A EB 21 FA CB AD B2 6C 6D 14 30 E9 F9 65 B9
 42 69 0A 32 F0 69 2B B6 BD 45 E4 91 73 A0 DD 23
 27 3D 04 FC 3D EC FA AC 46 69 56 31 5C C9 23 0E
 B6 2D C1 F0 EF F0 7C 15 50 F3 28 6B B0 C4 D7 56
 C1 A6 D9 0C 86 3B AD EB 64 A3 1B C6 6A 60 59 63
 6D 0D 8B 5A 6F A5 E5 58 10 85 1F 01 80 54 F3 FB
 9F C6 9F 90 55 63 8C F9 2F 9C A5 CF FF 34 A0 D9
 B1 5D BF C2 56 8C E3 94 22 EE D4 92 C5 DE 23 18
 05 58 D0 AB 7E 33 0D 20 BF CA 71 EE DC 66 5C A8
 D4 58 DD FD AC FA 77 C6 CF 9C 86 B1 27 51 0C FA
 88 7F 1D 4C 79 4F B1 AA 8A 3B 27 B3 0E CA F4 7D
 E2 B9 A4 24 1E 11 7A 04 95 CF 25 70 66 AF E6 87
 0B FC 57 B6 5E 12 A3 8B 2A 18 AF FD 11 B8 3D 46
 B3 5C 8C 8A 6E 34 1C 29 A2 9E 0F E4 02 D3 80 44
 64 A3 8E 56 16 29 16 FA 28 BB B6 A6 E5 CF C3 B5
 B3 80 4B 50 78 B6 42 43 CB 41 D0 1C 21 27 A7 9F
 65 BE AA 7C 64 DE 58 13 A8 80 F9 D1 AF C8 6F 6D
 C7 28 D7 33 CE 4C C5 4E B0 D1 A7 C3 9E 20 53 8A
 DF F3 3A 46 F7 07 44 4E CA 08 1C A4 39 56 F4 23
 B6 BC E8 B8 13 0B 72 13 3C 94 D3 B7 57 EC C8 97
 20 4C 9B F7 A8 1C A5 D9 8E DF 97 75 0E AC F7 29
 91 0E 27 97 68 2D CC 8B 11 F5 BE 89 3B C8 8D 92
 83 F5 9B 59 2B 5D BB 38 28 F7 23 EF 01 1E F1 6F
 B1 CC 3C 94 59 30 E5 FF 61 13 5D B1 71 63 E7 BC
 26 AF C6 8E 74 9F AC 8F 20 87 35 DC 3F 1B 2A ED
 7A E9 25 61 2B AE 44 54 9C 2A 78 23 C9 57 98 FF
 27 37 BF 13 CD 78 55 A4 C6 C4 4A 15 B2 A0 1F C5
 FB 17 CE B1 C6 45 BE DE E1 81 1B BF 4C 02 FF 32
 DD 2E F5 DE 0B CA B2 84 A2 0D BE 45 5F 4E 18 59
 F1 EB BC B4 8D 70 D1 B4 A0 5D EC EE 0C A3 F8 68
 D2 92 4E 89 7E 3E 6C 80 D0 B0 91 26 93 9A E2 0A
 FB 9C 87 8C 33 1B EC CC D8 3D 06 88 FC 7B 54 2F
 23 0E D2 A6 06 9A D6 DC 19 66 C8 72 C3 81 D1 6F
 08 99 08 CB 7A 18 B1 DF C3 C9 E6 0A 85 71 D0 DB
 69 28 35 F6 B4 F5 F7 67 E8 D4 49 F9 2C D5 24 B4
 01 E4 BA B4 57 9C BE AB 71 96 17 6A 9E BA A6 69
 E0 DA 26 06 DC 1C BA AB DF 8F 5F 8A AC CB 47 B7
 E2 B3 3C 30 8E C7 CE 22 16 EE DA 1A 3A 13 6F 53
 29 1A 0D 8F D7 6A C6 E2 2A B2 C2 56 6B 6F D4 AD
 20 7C 1F 92 0F 3D 5B 17 20 7A 15 ED 66 49 3B 23
 89 4B 0A CD 34 60 B7 D8 82 CB 02 52 45 29 7E 20
 ED 90 FC 39 39 F4 D5 AC 5D 19 7B 48 E6 C3 1F 02
 6C 89 2E 16 F8 00 55 2E C8 B5 C7 AF 07 4A FF 6C
 16 F2 44 84 90 EF DB A2 00 F6 63 A3 08 05 03 AD
 E6 D9 2E 99 A8 7D 37 00 FD AD 5F 44 26 AE 84 68
 43 C1 28 CE 59 ED 0C E1 58 2D D2 AB C1 48 50 14
 88 B2 FC 2F 3E B3 87 28 DA D9 76 60 20 A6 EC 23
 1C 30 1F 9A 47 82 59 47 FC B4 1F 8F 0B B7 20 1F
 AE 45 E1 33 11 8F 85 D6 2A 5B FD AE 99 10 C1 0C
 72 9F 22 52 CA AA 5F DA C7 AD DB 8B 7F 9F 11 94
 AB 0A 98 23 64 A8 F1 84 29 CA FF 5B 9A EF 11 1F
 2E FC B0 42 E5 9F 16 C1 23 35 40 44 79 23 AE 10
 E5 42 52 D7 7E 19 EE D1 21 4E 2B 65 8F 7F 73 A7
 57 21 24 66 65 B1 49 00 61 52 50 B7 90 2B F5 CF
 36 AD B4 51 4E 86 89 07 B1 7A 79 E1 B4 44 D1 38
 3A 58 07 CB 8D D9 95 18 EB 68 98 D5 DB B3 39 95
 4D F9 7D B2 56 3D 8E CD C7 00 1E 7C 30 F5 A9 27
 E4 7F B4 B8 FE 5C 84 0F 6A DC 96 44 B4 C2 66 A8
 F2 9D F8 6D 6C BB 0E D9 12 9C BC 5B 9D B4 D9 DB
 7B 99 E4 06 34 CC 6F EE 54 92 0D 62 52 A6 C4 84
 71 35 21 A3 6C 56 99 F9 1A 79 21 9D EB 4C 42 0D
 E3 B1 A1 E3 8E CA 4D F4 72 50 36 F1 80 6D 15 6D
 C8 F1 59 70 E3 5F 17 07 30 B6 1D 1E 16 C5 FD 51
 03 D0 A3 AC ED 0B A4 32 70 35 61 13 03 82 93 0B
 09 3D 7A 21 E2 54 A3 97 47 1F 06 FF 4C CF E7 93
 E3 74 B6 D0 3E 55 72 52 2C 91 C0 7D 6F EC 9E 2D
 F6 58 35 12 20 8F 86 E8 52 66 E3 E0 FF F0 56 7C
 1A B0 0C CA 0E B7 C2 44 E3 89 49 5D C5 4B F5 BE
 EA AE 02 57 9A 50 89 0C 94 1C 79 28 A0 43 1E 30
 F5 A2 84 1F B3 3E 17 71 03 B3 2D 9C EB 33 CE 15
 2B C3 D0 59 DF 50 ED F5 0E 4D 78 BB E9 11 4B 9F
 95 E0 51 78 A4 C0 FA 58 E4 E8 5A 22 30 6C D6 1A
 3A 79 92 89 60 8B D8 90 B3 9E A7 E4 DD AF 32 03
 1C C9 F5 92 2E 64 1D 94 DD 95 CA 8F 3E 44 D6 F0
 D4 85 1E 9A 8B 51 F0 B1 05 E7 AE 41 60 CA 18 E1
 65 C6 49 9C 7D EE B0 23 9E 19 3F 73 F2 A2 7B E3
 5E D4 AA F0 43 EB DC E6 7E 16 EA C3 61 29 28 58
 17 64 3A 89 15 F6 FE 4A C5 33 2A 4C C8 3B 3D 1F
 83 B3 43 1A 36 EA 93 B2 D4 CD 11 A9 8E 7D CD 27
 64 6B 3D E4 14 7C E6 ED DA 4D A7 86 75 B7 7B 17
 40 3D CA C9 A0 38 2A 31 6B F6 50 05 A6 FE 92 47
 85 79 23 63 7C 74 58 31 A5 BA 5D F1 43 67 4A D5
 AF 0A 12 53 FD 62 E1 B5 B2 DE 40 D9 E8 3C 9D 23
 40 75 63 FA AD 76 00 F9 31 83 55 AC A4 46 B1 DA
 DA 3E 68 ED 8A 78 6F 80 AE B8 E3 E4 6E 39 CE D5
 F3 15 93 9C 6A 61 88 82 98 8E 9A 84 4D 54 75 FF
 1D B7 F7 53 B4 EE 41 73 54 EE 77 DD 15 A5 AE 1D
 9A C5 4C 24 5A 79 99 20 EA 1D AA F6 BF 4E 26 3F
 8E C8 AC 64 0F 3C F1 A8 DD C8 8B 92 EF 41 80 07
 0F 65 5E 01 24 56 E3 53 46 36 42 2D 5E B8 F5 9A
 0F 5B 52 4A 7C 0D A1 E9 5A E8 BA 36 B0 D9 62 C3
 0D 5E C4 E6 11 E8 FE B8 34 90 B6 C9 9F E0 F6 A2
 F6 5E 7B 2A C4 03 6C B2 BA D3 AB 0A F3 97 8C F3
 57 F5 C6 73 5F CF CA 53 F9 B3 9D E9 8A 5D D0 0E
 99 DC 0D 86 5F DF F9 ED 7D A1 F3 2D 31 9B 89 62
 FA 5F AD 5D 09 A7 F3 66 23 BB 97 9F 4C 16 E4 87
 57 35 DF 3D A4 F6 DD 8D 24 46 F4 0D 62 1A 70 71
 B9 BF C8 23 5A 83 CC C6 B5 9B 1D 65 C1 33 1B 87
 AD EB 41 FB 39 D9 23 4B 60 19 CD 4D CA F6 9F 2E
 B4 DF 78 81 5A 7B D8 78 F8 AC E2 07 DA 3B 98 9C
 9E 8E CA 85 C5 7B 7D 36 79 FE 11 9C 4C 15 5F 03
 C9 8C 04 18 C7 66 C8 D5 CC 00 0D 20 E5 77 FA C5
 15 37 76 A0 28 CE E9 C5 8F 5D 8A 94 FE 40 1B BA
 45 C2 60 4D 26 2E B6 1B 8A D6 64 5D 87 A5 A1 06
 51 B9 7B 32 56 F6 8C D3 C5 97 BA BD 48 86 D0 26
 B8 1E 4F 99 95 FC 64 4F B4 D8 44 DF 6F DD 5F B5
 BA 06 F5 BD B8 D3 DB F4 F0 06 5C 9B 4D 68 FE B2
 27 4D D7 2F 28 53 46 B0 3E F8 DA A2 15 2A 72 57
 B9 7B B2 75 7D 51 FD 48 70 4B 50 86 AC 10 2C 48
 EE 5B 7F 72 70 0F 1C 53 FE D4 0B F0 0D 3A 39 28
 CA C2 47 25 53 A1 71 3D CE 0A 78 57 61 0E FB 07
 0E 2D A8 9B EE BE 80 DC DD 06 7D 6D F6 C7 63 2C
 B6 A5 F6 C7 20 4C 03 3F 5D 7E 09 C5 CE C5 9F 3C
 F1 EB D9 37 90 31 2C F4 A1 7E 2F 8B 37 7B 62 09
 B4 84 5A 99 04 4C 38 7E 40 53 44 F7 C6 A8 76 4F
 39 70 5F F5 29 9C 2F 46 8F 85 FB 1D 57 3D 5E 84
 09 DE 95 00 96 00 4D B5 85 3F C6 4B 98 15 59 96
 CF 64 1F 0B 20 90 9F BF 4E CB B2 FD 07 50 50 9A
 53 AE F1 72 1D 0B 1B 0A 58 B0 61 8B 67 95 D2 3B
 97 FB 58 4D 3E 43 5C 74 A9 50 39 20 E1 F8 8E 3A
 C3 95 39 48 07 D1 FF AB 94 A4 ED 58 8F FE DB 4B
 83 59 82 3A 38 49 8E 23 13 11 8A 49 00 38 3E A0
 5F D1 A5 2E 6A BC 8C BB 3A D9 1E C1 8E D1 67 16
 CC BF A7 73 A1 75 39 B0 24 CF C0 35 57 8F 5D 2D
 10 01 82 CC 9A B2 D8 EB 42 2B D1 EF 69 8E B4 39
 CA ED 6D BD 1B 89 E7 7C 6B 8D 0F 40 25 23 24 2F
 3A 08 C7 E6 9B E0 A6 D1 E8 A1 9E 69 BB 91 61 4C
 26 71 95 1A 60 F1 E9 5D 99 35 AD 5A A0 2D 05 AA
 76 EE 5E 91 95 BE D7 38 F7 AE 03 8C B7 26 CC CB
 F4 08 86 00 79 A4 39 23 67 6D E9 68 D5 9E 84 42
 E0 94 E4 67 0B BF 01 04 8B 94 9B A6 86 48 2A 5B
 8C 51 95 D4 13 87 A3 62 7D 97 57 E9 84 50 92 2B
 1B 97 D8 F9 43 1D D2 88 CF 2C 21 A6 12 63 A3 FD
 F7 5A 46 C3 5C 4D 22 A0 7E 68 1F F6 11 BD 8F 24
 D3 77 B2 60 81 5B B7 2E F7 FA 07 BA 01 42 1C C0
 DC 2E 99 51 48 B5 B0 DE 53 F2 51 E6 9D FF DA 22
 F2 82 6F 1C 9C 65 9C A6 94 26 C7 63 F1 96 C0 F1
 41 24 74 7F 62 28 25 3A AA D5 7C 91 EC 6D AD 49
 FC 8D 2D 2D E2 C3 56 C1 E8 F4 BD E5 9D 70 70 B7
 F8 05 8D D2 96 28 93 17 73 01 C8 5B 1B 59 58 66
 70 1B 5C 89 F7 30 65 6B 57 5E 27 1E 72 64 BF E6
 EC BF B5 3A D2 EC A1 7B EC 68 08 26 5C B7 3F 07
 A4 55 7B 42 A0 D0 58 F4 B1 98 DB FE 80 2F E7 E5
 50 AB 5F EA AC F7 92 29 D1 D0 A9 69 8B B0 1B CD
 87 FF 2C 1B 0B 05 2B DF FC FE 15 75 9A E4 89 A5
 B3 EB 8E 9F F4 FA ED 83 E1 AA C7 D6 2F 1B DD 17
 1A 2C 8F 62 8F 9B CB D9 C5 60 A5 58 E8 97 32 AE
 D3 4B 5F 8D 69 D2 99 64 8C 32 0E 37 0A F3 01 56
 37 AB 59 BB 3B E7 4D BE 34 9B 49 36 5F 16 6C 61
 39 BA AE B8 02 D3 49 91 DE FB BE EB 52 8B AD EA
 EC 7D 8B B4 12 B8 03 7F 5A 7B 40 A8 D7 BC B4 E1
 19 71 CC 78 B0 F7 EA 51 C4 4A 71 A2 52 AD CE E9
 C2 BB B0 67 D8 93 3A E6 AF 0F 22 AF CA 40 B1 33
 E1 3F F1 FC 88 F5 F4 95 F9 BC C5 C8 C4 DC A8 9B
 E1 AC B2 ED A2 58 AC F1 44 37 17 BD 11 94 77 74
 BA D6 7A 6B 06 73 E3 E8 51 A1 7B F8 35 B0 C8 F8
 11 29 13 D5 A4 17 F5 80 3D C9 AE 62 45 F5 52 56
 62 13 56 FE F3 C3 F5 DD 76 3F 87 D7 85 BD DC 08
 1E 4C 2A 08 04 2B F3 1C 7A 72 9F 71 18 EE 7C 8A
 11 19 EF 25 5C AF 2D 27 BC DA 38 38 94 C7 98 33
 D6 89 5F 50 70 20 31 23 29 99 0F F1 A0 30 88 25
 8F 44 16 EF 11 CE A8 45 5C 38 60 67 4A 8D 28 B5
 5F 2D 05 D0 8A 5B 2B 3D C5 72 76 0E 51 9A B1 EE
 EF 86 9C 2C 3D 79 31 E8 C2 E5 AA 53 11 A7 9D 6B
 7D 1D 44 65 D7 B2 1D 83 5C 78 9B 28 14 B0 FC 29
 6B 82 19 5E E6 05 F6 88 FE 88 81 58 2C F5 E3 61
 99 F0 D4 76 27 D8 87 56 CF 8C 57 72 4E E5 3F 63
 A9 17 71 FF 98 44 37 DB 89 A1 11 60 60 28 D5 14
 C3 E8 8C F2 97 31 AB 98
* End 1585941104 2657502938