* LTspice Encrypted File
* 
* This encrypted file has been supplied by a 3rd
* party vendor that does not wish to publicize
* the technology used to implement this library.
* 
* Permission is granted to use this file for
* simulations but not to reverse engineer its
* contents.
* 
* Begin:
 B6 E2 97 C6 A4 EE C0 9F F6 9D 02 82 67 68 7D BF
 29 A9 AB 37 08 50 1D 25 B0 A0 3F 6F 18 86 78 54
 91 30 DF 39 7F 87 15 F1 2B 46 31 EA 67 4C F6 5B
 5C 7B BE 9D 60 CC FD D4 05 66 94 63 AE 78 61 4F
 1D 2F 6E 92 3E 8E B2 72 79 92 30 BC D2 A3 94 F9
 A2 44 D9 3A B1 2A B3 9A EC CF 6C 86 A6 8A D0 3E
 58 01 73 CC 00 80 71 90 AC 07 96 9A 7A D6 B8 50
 B6 A1 1A 88 17 B2 A8 68 6A A1 DD EA 63 37 C4 F5
 35 2C E2 38 87 17 A9 E8 9A 43 7D 58 3E 86 89 E1
 E2 7C 9E D6 D9 AC 3A DD 6C B4 25 1A 6A 55 08 16
 01 70 AD 8A C8 06 BA D4 62 75 BD 74 95 F9 E4 CA
 B7 18 11 CD A6 9B 1D A7 69 CF 81 11 39 3B C5 2B
 FC 26 70 D5 0F 9A 1D 18 C4 4A B4 7A 33 04 3C 0F
 1C 0F 4D 11 7A 74 25 84 96 03 C2 F3 C6 9E E5 55
 B1 1C 4D CA AA 4F E5 AD 8F 30 D8 38 C2 A2 20 A5
 B8 47 4E 68 E8 83 09 0F E3 53 7B E6 7B F9 66 41
 6E 8D 62 8C 0D E4 8B 28 03 21 09 15 5F 9E 8E 4D
 46 62 46 5D ED 14 95 E4 61 40 60 24 57 A6 2B D3
 60 E6 E2 46 1F CE B7 9D 99 4A 0B 07 40 97 C4 16
 F4 92 75 36 B1 4C 04 3D 91 8A 0F 98 96 8B 17 8D
 C4 C2 E6 10 77 30 8D 66 81 9F D3 79 1F 02 52 2D
 37 89 24 10 65 AC 46 30 3B 72 FB EB AF 2B 61 AC
 9B 68 AE 88 4F D7 7C 0A 39 1A 59 D9 83 FE 78 44
 1E A6 87 88 23 B9 31 7E 8C D4 58 C2 B8 23 A4 AE
 E9 09 F9 8B 4A 9C A0 DF 03 38 E9 98 2E 47 D3 9E
 0C 78 3A C7 4C 84 03 B8 EE C6 5B A1 F5 6B 40 68
 7F B8 9D F2 E2 5E 55 C2 E8 25 C8 14 55 95 4D 57
 35 8E 2B 76 02 E9 8D 80 B1 3F 73 CD 48 A4 87 6B
 31 F0 EF 1F BB F3 64 F2 C4 A5 7D 57 41 7B 2B 06
 66 86 B3 8E 6B 02 4B 32 71 29 E3 EA F5 22 4A 97
 7F 9B 4A CD 1C A0 12 C6 25 9C 4C A0 13 4C F6 28
 B9 93 7A 25 98 2C 8B 69 E5 BC F2 52 9F C2 41 73
 B9 77 1F 77 BF BA CF CD A8 C7 E6 96 F3 72 70 77
 40 E4 49 E9 0A CD D7 5A 77 18 BD 3F FC 19 69 1B
 D6 4F E0 99 71 77 87 F5 85 FD AD 99 CF 1F 60 8E
 C4 B9 82 09 38 B1 83 92 54 62 7B 60 1E DC FB 1A
 16 67 2A 78 E2 D3 68 48 7F 89 F9 E4 B8 07 62 12
 88 76 07 F4 40 42 C1 A5 93 9F D9 59 2D 99 5B 5A
 05 AE ED BD CC 98 8E 20 C8 5F 26 19 89 D7 0E 07
 26 19 E9 83 FE 0B AE 23 4E DF 74 67 18 0D 4D F1
 63 E2 AE C0 19 75 91 29 5B 8E 1C 6E 36 47 FE 2B
 DD B0 68 A3 87 51 78 E5 EA FF 43 9B 34 FB 37 4F
 1B 4B 67 43 BD DC EF 29 DD 7E E3 34 5B E1 67 88
 10 84 42 33 7F B9 D9 9B 70 32 4D F1 E6 3F A4 F0
 85 46 71 11 B7 28 73 4C 3A E5 85 1F 2D 7C 2C 47
 A0 29 FF 78 ED 1C 41 E4 FC 8C 8C 5A BC C0 2B F8
 DF E0 F5 C0 17 1A 62 14 7F E6 B2 AC AF D9 64 50
 1F A4 08 3D 36 A0 C8 3C DE B8 6E 35 BE 0A 59 D2
 91 86 A6 88 E2 DB D9 E3 DF 7D 1C 8F B4 69 CB A5
 5C 15 D1 94 3A 4A 38 CC EF 2C 8F 1E 54 60 EC 27
 BF 6F 50 20 EF 33 19 81 04 BD A3 C1 A9 70 55 23
 43 33 A3 0A 32 6A 67 4D 8E 41 BE B4 43 24 38 01
 07 3B 2A 0F AD 1C 07 75 B1 34 D3 78 8C 98 F7 78
 97 9D 4A 8E AE B1 6E E6 DD F4 C7 4F 13 DE 58 BE
 3E A0 8A AE AF BC 8C AD 4A 29 4B AE 9F E6 8F 20
 67 51 9F 50 6F 51 79 F6 1E F1 30 42 EF 72 23 C9
 F7 20 8E 2F 16 BF CD 1D 87 26 11 27 B9 1F FE E0
 74 E9 25 5C E0 79 CE 2C CC 9B 94 97 62 B6 05 24
 96 FE 19 6E B7 FF 6E 97 A9 A0 AB 10 12 33 F0 3D
 73 F3 D4 4E 7D CA 5A 2A 22 BE E8 4C AF 70 99 A6
 C4 68 A4 EC 61 73 DB 3F 25 B0 51 24 28 DE 5C B1
 CA DA A3 42 ED 75 EE D3 89 C5 5F EC 6E 65 E8 D8
 D6 39 B9 C0 9A 4A 33 CD D3 E9 0C E2 C6 4E 86 89
 C5 7B 96 56 7A 85 70 7F 25 76 3D CC 6A 3A 77 11
 B4 49 E2 1B EC DC F3 7C 83 F0 FD D8 6A 8D AE 0E
 E7 7B B2 35 F9 28 C7 E9 D1 F6 09 9B 01 EE CE 0E
 F7 F0 73 73 0A FF 09 18 1C 0C F3 C0 6E E5 1F 54
 5B 6E F5 84 79 DC 60 A8 4E 6C 5F D5 B0 5A 2D 0D
 19 9F 96 BE 5A 80 2E 97 C1 E8 C5 7C 38 54 38 2A
 64 99 94 D3 D6 F3 60 A1 08 FD 0C FA 09 F7 B9 D4
 F0 B8 B9 C7 19 4C 1F EA 46 6B B9 48 07 94 27 08
 6B 5D 6A 6F B6 C7 43 21 75 58 9F 05 6B DD D1 46
 E0 D3 C0 A2 1D 8A 72 A6 3B 04 01 A9 D2 55 9E 50
 4D CC 2A BD 32 B4 E4 FB BD F9 F0 53 89 40 F9 07
 EF 9A 12 A4 38 9E 8F 78 7F E0 6B 27 BC 80 43 99
 68 B4 90 BA D5 D0 96 7B EE 36 05 4A 78 F0 2B 91
 BF 55 BC D0 8D C8 D9 74 89 4E 01 B4 B3 37 13 2C
 CF 69 67 A6 FB E2 96 86 96 8A 12 FD 84 CB 30 74
 E7 35 74 A9 C1 5D AC 70 1F FC 4C E8 F8 82 C6 6A
 3A 2A 3B A2 5D 6B B6 96 D0 01 95 9C B9 90 75 B3
 F6 8C 68 93 66 CE 9F B6 50 88 0C CE 6C 98 07 EF
 79 88 70 E0 5A C1 43 FB 4D 1D 51 92 60 24 A5 9C
 E0 CA 65 06 9B C5 DA 9E FE 10 26 5D CE 7C 64 DE
 E8 60 D7 9B 48 C5 C2 88 0B 00 4E DC 5D 0F 6C 95
 55 08 96 0E 50 D6 3C 66 CA 07 C6 D8 3C 15 E8 B4
 FA 30 E2 92 21 41 C2 42 9B DF B9 36 B0 B5 CA 12
 86 6E 0A 5C 62 69 82 0F BA 37 81 9C 72 3D E3 13
 FC 99 FE E3 B7 36 DB 0D 4B 82 E4 60 C6 8B 91 90
 7B 8A C3 C1 25 CC 40 05 3D 6D 59 F2 CE B5 0D 73
 CC AC 94 76 F1 88 58 3B 19 64 3C 60 A8 A5 86 4F
 38 A5 50 A5 3F 4A E2 5D BD C5 2E 13 BB 27 4E 91
 77 A2 1A A4 5D 8C E4 9B B6 24 4E 37 7F 1D 8F 69
 2D 5F AB 82 B8 63 74 8E 35 3E 71 13 FF 97 16 E9
 49 80 40 B2 A2 F2 72 CC 8B 28 5B EB 52 6C BD 05
 4A FA E2 F3 4C EE 94 64 50 C4 E0 6C 03 4E F7 B1
 F2 69 FA 47 3B 92 D0 F7 EA F1 9C 67 F6 9E F3 AE
 6B F7 3B 4B C6 70 63 21 9D 4C E0 DB 41 79 EC 60
 EC AD 7E 86 63 B6 59 5B C9 75 FE 44 5F B6 FA D4
 B1 35 D8 4D DD B0 48 2B 0C 3F 81 92 9B BC 71 83
 F0 8D 22 77 FA 5F 7E 2B C1 00 29 3A 0C 2C D9 88
 26 B9 2C 4F 9A 34 53 58 AA 4F 4A 37 6E 97 52 30
 42 0E 91 0C 6E 70 C3 91 B5 39 1B 7F B2 CB 39 FE
 AC E0 16 43 AB F8 C2 39 2C 67 19 93 D1 54 93 74
 39 C4 35 88 74 CA AD EC B4 62 BA AA 9D BB 98 87
 60 BD FC C8 3B 06 AF 7B F0 1B DE 78 05 26 24 C1
 F8 AC 8C F8 9A 3F 43 E0 D6 6A 7D 26 7A 3D 10 D8
 C4 17 F5 51 3C 8C 91 11 E6 F6 1F 1F 6F F2 7E 43
 7F 91 64 53 BB C1 70 7F CD 0F D5 B3 2F 7D 2F 1A
 FB AA D7 D5 DF BE 42 B6 FB 55 C7 CF 76 60 C7 87
 B1 AE 22 8D 02 FC 1D 6A 85 DA 78 C4 3D 86 7A 93
 C8 D3 73 1A 07 F4 A8 3A 40 9E 78 D1 5D 02 43 AA
 A0 16 42 D4 F5 96 77 C4 FF D9 5D 8E 9C 0F 70 44
 3C 11 76 18 41 68 D5 C9 A4 BB B9 88 F9 7E 4B E8
 27 60 8C 7D 3B 76 2C 6C 31 2F 18 7F 6B 12 EF EE
 06 89 2E 8E 7F 8B 5B 31 DA EB D9 D8 A4 F6 B6 6F
 E1 91 F6 33 96 C9 7B 0B C7 CF 26 C4 50 8A DA 63
 B6 DB AF 6C C9 19 A4 4B FF 54 B6 2B B0 EC 01 2A
 FA 50 66 C5 BB 8F D8 8E 79 08 2F FC 36 1A 75 76
 B9 60 70 6A FA AA 22 9D DE 17 EC 40 60 90 23 2F
 23 47 7D 89 8B 00 3A 85 85 38 EB 3F D9 EF 17 4B
 36 F1 B7 68 D8 68 75 B4 1E EA 69 01 0C 71 CF 38
 FF 3B 81 33 E3 AC F6 3E E6 F3 5C A9 B8 EE 63 DA
 34 E3 08 3A A4 9B 99 91 5A E2 3E 75 0A 06 D6 59
 20 A5 97 FC 91 79 49 DC 23 08 BE BA 52 DD A7 0C
 2C 95 03 2F 62 72 CA 9F 71 01 AE 22 08 6F 64 1D
 8F 54 B1 9E 8A 2F 12 FB B1 0C 1C 5F BE 7F B9 3C
 F5 D2 A0 35 BA B5 1A A4 EE 7E ED 50 3F F9 37 E4
 F3 5C 53 9F 63 74 7B D8 18 D4 DC 69 A7 33 73 24
 0A 95 2B E0 BA 49 9C 05 1C E6 63 0B 7B 22 3B 82
 D6 D2 78 88 B0 82 5E 52 E0 FC 47 E6 30 43 92 99
 27 4C CB 35 B4 58 37 82 2D 13 27 DB 66 C6 B1 FB
 80 0F BB 20 C5 99 BC BD 20 29 E6 5B 3A ED 63 16
 29 94 7E 1E BC 25 5E 84 8D C5 88 2F C1 78 AB 04
 41 7A 90 C0 2D 1A 26 E8 F9 60 24 C3 8A 95 50 1E
 68 BC F0 C7 94 C0 49 F5 7F 1E 52 2C 73 5A A4 6D
 EB BB B3 EA DF 68 C3 BA 6A 4D 98 7C 44 E4 1C E4
 78 53 88 33 03 10 CF 7E C5 65 E9 CB 59 30 95 B2
 60 99 84 75 0F 56 82 6E C1 5D 86 7A 34 82 56 8F
 D0 34 36 77 F9 21 26 B9 FE AA 0E 03 45 15 8A 31
 5F 06 90 30 AF 7A 19 5E 40 CC CC 3C DC FE 21 A3
 8A A3 82 F5 89 E7 3F BC 01 55 2B 33 7F 32 48 D7
 2E 80 26 54 AD CA 2B B7 8A 33 17 0B 9D 9C 62 80
 FD E6 0D 15 DD 22 F7 D6 D5 FA CC 4D A6 21 05 6C
 12 C7 79 F1 44 43 4A F6 CE EC 19 73 ED E2 60 C5
 A0 B6 31 01 53 61 69 D3 29 F1 53 23 DF D1 C0 30
 3E FF 42 97 27 0A BB 36 04 5E F0 8B B4 80 D4 61
 4C 36 86 07 FB F5 6F 98 40 5D 38 EC 94 37 26 1A
 18 20 64 40 16 85 BE 5F AA 90 41 B6 5B 69 CF 8A
 6D 78 1D 23 5D 50 B0 EF 14 21 59 04 C2 5D 49 ED
 34 66 2F C3 9F F5 95 EB 53 05 58 E5 FB 3B CE 4D
 B7 2B 7A FF C1 85 E1 F7 DB C2 B2 7B E7 EB 2F 16
 42 E1 3F 71 B2 3A 4C 7D 25 9D 11 92 E6 E3 D8 47
 EE 2C 85 50 CF DD 3A 6D FB 98 D9 1F 99 DF 04 11
 67 FA EF 86 24 9A B6 FE CC 46 92 23 44 F3 A0 9F
 D0 1C E0 F7 E3 6E F7 C4 46 95 0B C6 85 58 59 50
 F9 26 3E CC 86 6A C8 D7 14 96 CF A6 70 69 02 27
 8F 2C A5 CA 28 DC D6 91 E4 E8 2D A0 F1 1F 29 24
 48 C7 E9 B1 9F 32 7D F0 DD DD 88 13 BB 14 B1 91
 58 68 4A 57 9A A6 48 BD DE 42 94 CB 45 3A 9C AD
 B3 AC 54 56 68 64 19 14 0F F3 90 94 40 1A E3 EB
 D7 9A BC 74 94 65 B2 01 92 68 A6 35 91 B7 DA 8F
 93 4B 18 71 5D C5 75 84 D7 E6 E9 0F 8E 73 6B 3E
 7C E0 A7 8A 19 ED 6D 8D 96 DF CE AA 1F 09 81 1F
 BE CF E8 E9 3F CE 11 A7 56 A2 71 0F E7 93 40 36
 DB 87 E2 0D 8E B2 99 65 7A 35 DF 2E 83 0D 8F 1F
 BA 7C 7D C1 62 0A A3 69 F5 C1 16 6D 37 AD 07 B5
 8A F3 D7 8A F3 25 80 96 8B C2 B4 86 F2 84 3E F2
 52 A8 55 62 06 AF A8 9C F7 74 FC 5B 97 5B 17 DC
 B2 2C F4 E0 14 ED 41 99 AD 06 82 A8 80 75 00 D0
 8A 12 66 B8 12 CC DF 64 6F CF 82 BA FC 3C 84 B7
 00 09 9F F6 BA 52 27 69 3F 33 D2 F1 D1 5C F5 A5
 BF E5 8A F5 D8 02 55 96 02 4E D9 3A 5C 2D 8B 30
 1E 10 F0 5E 8B CC E6 73 C8 DB 4F 13 18 D2 14 FB
 B2 27 9D 60 77 C8 7E 24 05 7D E5 A7 D4 4A 2E 86
 98 CE A7 57 FD FA 89 48 39 65 5A 3F 48 29 D8 38
 7F F3 25 31 E8 A2 BA 06 4C 7B 01 EB C1 A0 D5 C2
 6A B3 C6 78 C1 FD 64 40 F2 1D 5C 7C B7 20 32 19
 53 B1 5E 34 2D 57 82 96 07 79 AD FC 78 2A 0C 0B
 6F 1A 43 E3 DD E2 42 5E 8D A9 A1 48 E5 91 5E 76
 BA 77 7E 02 25 F7 A4 BF A4 C6 23 A8 B2 76 4F 0F
 FB 64 B3 34 E6 40 DC B8 E3 E0 43 A8 DB E9 20 D1
 B1 0C C8 11 28 0E 12 04 BA 59 FE 8B 5B 06 62 8E
 FC 66 1B 1D 98 D8 C9 50 51 A8 8E 4B 3E 18 DF 62
 E0 9C F6 90 B1 DB B6 D9 50 48 E4 4A 75 97 56 BE
 56 F9 96 FB E9 14 20 16 AD 4F D3 24 4D 27 D5 17
 49 BA 2D 45 18 CA 8E 0D 7D B3 C1 E1 BD 4A FE AA
 AB FA 93 19 93 F5 EB BF 76 57 F6 82 E0 EC 0F 6E
 A8 11 9F 43 A7 97 0F AA FF CC 68 F2 BF C8 15 46
 80 76 B5 23 82 A8 6B 89 45 32 C1 14 54 F2 D8 01
 8B 8B 06 8C A8 E0 5E 2C 9C 6F A4 8F E8 42 89 9D
 41 53 D7 A9 67 8F A2 54 38 94 41 7B 70 12 A2 B7
 D2 29 DA 3C 3B D7 9B 12 EE E4 CB 57 A5 7C E8 5A
 7C 41 DD AC 0F 3F 95 AF A2 F9 6F BC 12 50 E7 6A
 7E 23 1F B7 C6 18 C2 50 B0 B0 D4 00 B3 D3 61 29
 D3 E9 00 16 8E 4E E1 A9 A8 EC E8 9D EA DB 44 B1
 0C C4 E5 5B 6F 62 E4 D8 31 3B E5 6B 3A B1 B2 EB
 EB 5E 4A D2 F8 A4 64 A1 7F 27 A3 2F E4 62 33 BF
 85 4D 26 DE 11 BD 66 28 C7 E8 BE A3 D2 78 0C AF
 3C BF 79 FC 95 9E 41 B9 64 9E 8D C6 2D 5B 0D 07
 BB C5 D0 E2 59 DF 1A 02 56 0E 19 58 C2 1C 64 E7
 82 A1 61 59 68 C0 69 C2 E4 9B B1 6B 11 C0 9B 7A
 7E 93 8F 29 0F 11 34 A9 61 91 38 CD AF 01 36 2C
 57 DE 49 B7 FC 38 FE A6 2D 5F 49 BB 60 02 FA D4
 03 7A A5 39 F3 1F 5D F5 07 A9 D7 F2 14 3D C2 FB
 58 45 3E B8 3B 22 41 12 92 44 18 B4 25 FE D6 42
 DF 74 A4 51 F6 9A 83 13 FE A7 E8 24 CA FF A3 07
 F8 21 48 A7 E9 CD FA 21 19 D8 08 10 13 A9 90 B3
 86 B2 08 DF 27 92 06 4E D2 7C 42 E4 2F A6 A3 A8
 57 AB 2E 0D AF 86 79 5C AD C5 F2 6C 99 B6 5E 12
 44 26 9A A2 22 83 5C 7D A4 FE 60 5C 7C 4C B4 0F
 6E 80 C4 D7 08 4E 9C 3B 87 F8 F8 F7 96 66 9C 52
 50 43 F7 54 87 C5 DF 11 BB 4B 78 1E 14 AB 02 02
 D9 78 F1 E5 5C AA 7D 95 A3 1F 81 96 9F 6C 2D 5F
 A4 D4 F2 A8 65 DF 23 45 4C 51 C8 AE B7 64 4B 4A
 0D EE 0E 5A E1 B6 37 EF A6 35 F7 AD 63 11 F6 AE
 D4 DB AA EE 42 7D 52 61 50 47 AB CA 85 05 79 43
 D1 A0 F8 13 6D 58 00 FA CB B6 67 B2 AC 96 7E CA
 FF F8 C4 03 A8 0E E3 29 04 51 1B 29 B1 46 FE FF
 00 34 9D 4C B4 B8 D9 AF CB 6D 60 E4 77 9E D7 6A
 D2 06 61 BC 59 2A 81 B4 B6 05 2A 40 39 51 66 FD
 C4 29 A6 3F 2D 9B 18 31 B3 D1 CC 33 58 16 47 8E
 6C C3 AD 4F DF 6D 2C 26 D2 E6 29 CF 95 63 C1 7C
 2D E2 75 B6 5E A5 08 AC 2B A3 73 D9 21 F0 0C F3
 6A 02 10 78 3A 8E 20 34 E5 7E A2 D6 24 19 EF A5
 FA 25 71 C1 9F 02 4F D0 9D 48 31 BE 55 FE 58 E4
 4E 89 8F 2E 3A 24 51 2F 96 1A 2D FD CB BB 96 BB
 0E 3B 6A B4 91 90 0D 95 28 DB 90 5F B6 B0 B1 16
 C6 98 12 9B D4 0F CC 8B 22 E1 F3 39 8C 48 16 55
 36 E5 B8 24 FE 07 6E 8F 4C 77 FC 72 0C 3A F5 4F
 3E 97 75 79 C9 1C D5 B8 96 A6 97 AF FF ED 23 E7
 F2 61 C5 BA 81 28 D6 E8 7D 99 D2 0D 96 89 86 3A
 BF BC A5 F5 F1 59 F1 6F 17 9E FF D4 53 2D 6D 77
 28 97 4E 44 87 F0 49 54 0C 0A 69 2D D0 77 4E A9
 D9 02 E2 FC 7D 57 2A EB 1F C7 46 C4 A6 43 D1 F3
 C0 FF C7 51 9E 6C DF 11 0D 41 69 11 5E 85 0D 18
 DD C1 DA 4F 50 4F 35 45 D7 66 2D 2F F6 18 A9 57
 29 1F 05 83 C3 DB 35 97 AB AD DA 09 A1 84 C0 1D
 4D E4 80 C2 0B D9 8D 90 44 24 96 0E 4E 82 2F C5
 49 EB 5D 24 19 B7 51 A3 4D 6C A4 75 64 F6 D4 03
 E5 C9 8E 3A 17 88 49 3F C2 07 B0 CD 58 D4 A5 05
 BA 3F B3 63 15 EA 1F E0 D8 2F 81 AA D6 DD 71 35
 6B 31 88 D2 E8 B4 A1 2B 51 B7 D7 F9 AD 4C D7 9C
 2B DD 78 12 A1 A6 32 49 61 00 BC DA B0 CF DD 24
 BB A8 D2 10 DF FA 48 72 13 55 15 DE C3 7C E3 98
 23 42 47 40 F1 0E BA 84 C8 49 13 B4 49 60 F2 71
 3E 83 39 94 31 6D 8F 24 7F 5E 82 D3 A0 D3 DF 5D
 7E E7 32 A0 D6 09 2B C9 F9 AA 8B 2F CA D6 51 01
 20 EA D7 E8 82 B1 5D C5 B1 7B E2 AD B4 F7 D4 57
 BF 39 7D 14 C6 9C C5 6F B1 4B 47 A0 EB EB A8 46
 43 F0 78 38 14 23 8C 99 B1 A5 41 E7 EA 45 53 D9
 81 B5 55 B1 44 09 D1 1F 44 65 D4 DB A0 D2 51 18
 3E A6 E8 BA 8E D0 AF 02 A7 33 F7 F8 43 C1 4D 47
 0A 32 FB D3 60 D9 B1 B9 90 6A 8E 6B EF CD D5 42
 9A 94 BD 0D 09 66 CF C1 CA A5 FD E1 B6 3C 14 01
 75 FA A3 FC B5 AB 8E 4B 33 A2 FB 04 28 C1 02 67
 22 31 9B 47 36 B0 B9 C3 C3 BF 96 34 1E 6D 5B 0D
 84 BE E3 97 95 9B 8D 07 C2 43 04 91 5D BB 18 F6
 90 CD 92 5B 90 28 9B 34 C5 D3 7F 5B 57 93 68 C5
 AD E2 54 A0 5B 2E 60 8D 1B 42 D3 8E C0 51 49 63
 BC 7C 0B 45 D7 19 12 1D 70 7C AE F1 73 D0 5F B0
 98 74 BC F3 41 69 8F 75 53 AA DC 33 BB EB 16 63
 4B 71 03 96 22 EF FD 25 7B 6D 85 15 FF 20 8F F1
 ED A6 05 E9 26 8A B2 09 19 A6 33 DD 0C A9 5D BB
 ED B2 FB 42 1B 2C 40 FC 10 85 3C FD 61 89 34 0B
 BB 3E BD 66 D3 18 BC 78 56 2B 63 D2 47 6C 82 F6
 6A 91 17 4F 29 24 DE 23 CB 80 12 37 A0 D9 CE 25
 61 79 10 52 B3 CD EF C2 4C 8B 99 91 8D B0 02 62
 91 09 61 DD 34 45 0F EC 63 0A 5E FE 65 43 0A AC
 4F 60 31 B6 BB A9 62 41 BF EC 6B 3C 43 C5 CA 2B
 5F 88 90 94 59 1E F6 69 ED 75 7F 29 D5 DA C7 1F
 35 E1 56 AF 0D F5 AF 88 60 35 88 0C FE 2C 74 93
 9D 9F 38 67 29 C7 6A 42 C2 66 2A DF BC 11 71 FF
 FA DD 08 A4 2C 7E C1 0D 69 F7 05 07 08 F1 28 98
 91 9D 2B 65 D1 22 93 B8 72 26 B9 2E 1D 54 66 76
 89 D4 48 3A 30 B5 C4 13 9C E8 7E A7 A9 A9 D6 FD
 1A C2 E0 D0 3C 18 8B D4 32 B9 B9 BE 92 25 7C 43
 E8 D7 B5 E5 42 15 D2 E7 77 F7 E2 32 0D B0 C6 EF
 09 12 65 4A 3D A1 51 FB 1F 45 AE 71 42 48 C2 F0
 AD E1 DE E4 A7 50 EA C4 05 09 6F 44 AC 5B 49 18
 74 6E 25 DF 87 9D A8 9E 30 F5 D1 3A 8C 4A 00 B3
 88 9F D2 E0 B0 80 DB B5 E8 A7 7D D3 7E AD 3D 89
 AC 77 A4 AA C2 C0 A7 5D 14 2C 62 86 57 5B E1 C0
 D7 77 27 56 19 72 1C 93 E6 2D B1 D0 BF AF 2E 44
 88 73 16 36 31 BE CF B1 3A 6D 3B AC A8 29 C5 54
 C9 4A 34 A2 52 F2 98 62 AD B2 5E 74 8B BD CD A6
 C2 00 BA F4 21 2E 5C 06 88 6E 61 55 7B 0B 59 93
 66 11 47 14 98 9D FF 44 DB 8C A6 0E DF 86 03 97
 3A C8 18 FC 82 A6 F5 1C BE EC F0 5A 2E 21 CA 46
 B8 09 FE 7B 72 F4 4D 58 5E A5 F9 DB 94 1D 68 E3
 C4 7C 29 E0 EA BF B9 CE 4E 82 8E 58 F1 C9 E8 81
 D6 0A 23 92 5D 1E 89 BB EB 48 A4 81 58 A2 A9 AA
 52 65 84 CC 66 48 65 4E FD BF 76 A1 08 0E 7D 01
 87 4A 68 71 04 B5 26 A5 82 5E 6B B7 57 EA F2 59
 89 D0 B3 7D A1 98 1A 0C 67 A4 4D 8C 91 BA 63 FF
 0F FC 69 AC 47 45 9A 77 B1 39 83 63 70 38 47 6D
 18 45 57 6B 61 AB 2C 1D B6 AD D7 DC BB 0F 81 8A
 CA 9B B6 13 80 A5 66 0F A2 C8 AB 59 BE 37 19 30
 DE 74 02 3C A0 90 7D 79 62 A8 2F 28 9C 26 3E 53
 AD D3 CF 30 F8 A7 50 1A 65 9E 2A AA A7 49 7A 4C
 09 3E 7B 71 C9 9D BB 17 83 68 E6 71 D0 71 B6 E6
 88 1C 33 4B C2 18 E1 05 46 42 02 6E 01 51 90 B6
 A7 AB 6D 56 9B 05 AB 29 44 76 D4 AF C8 3B 92 E1
 D2 D5 8B 4A 72 26 62 AD 3A 79 03 21 78 01 7F 5D
 BF AD A4 40 1F C7 DF A3 40 F0 76 C3 CB BC DE 38
 81 A6 82 8D AC 40 F8 EE 19 2B D6 3A 3D 4E 7B 5F
 38 E4 84 84 04 BD CF 77 C8 D4 07 1D CE 48 B8 BA
 19 35 59 6A 16 E9 45 86 E6 AD 91 6C C9 24 4F FA
 19 4B 0B D4 BE 5B 81 BF B7 58 45 02 7E 5D 2F B0
 E0 A2 05 E3 5A 2A 70 04 94 B9 90 C2 5A 96 DD 5D
 8E 52 C3 D8 F4 86 D6 AB 2D 87 65 86 E9 1A F6 43
 6A 82 5A 1D A4 37 50 43 3C BA B5 86 84 5C 6E 4E
 5A 7C C3 91 89 A8 8D 44 49 A0 09 AE A0 C0 60 38
 91 01 25 A5 B6 74 15 05 3D 43 DA C2 71 65 BF 99
 F2 FD 8C 7B 3F 1C 34 60 D4 A9 88 DB 25 F9 7D 53
 E5 9D 3C 48 F3 39 32 F1 3B E0 D9 20 E4 C4 55 CB
 AA C2 4E DB 76 51 02 85 22 F6 AB E7 71 1A FE 11
 35 2A 1A B3 2C 49 CB EB 29 40 1B E2 B7 8E F5 CA
 A1 B8 8A EC 2B 50 64 FA FE 7E C6 4A 3B CC 0F 9C
 19 50 16 0E 74 0D 25 85 26 33 B9 43 69 14 0E 2C
 CB D1 6B 04 E9 91 FF 53 BF C3 39 A2 59 1E F3 4D
 39 6C 88 AC 88 35 CD C8 AC 94 74 CE DA E4 4D 2A
 21 E9 23 37 6B B4 49 68 4E FE CA 78 87 F8 A6 3F
 17 51 F9 1D C4 94 A7 4B 95 C0 10 F3 0A 94 E3 C1
 66 A3 F4 2F C8 EE 29 9E 97 A4 60 03 BF 30 73 F6
 E1 E7 FA 10 F3 B8 55 24 90 B3 EF 99 DB A2 AE D9
 03 6B 7D BD C1 18 0C 59 D4 7B 0E 7B BC 8E CC B0
 8D FF 9C D5 BE C9 69 3B 28 AD 4B 80 94 71 EA 9D
 97 45 F8 56 FB 2B 71 68 B9 62 14 EA 1C 50 34 DC
 98 5E 68 49 7B 9D 9F FD 0A BA 23 37 FF D5 1D F1
 94 28 58 7C 62 E7 23 31 29 3B 96 46 5E 0D 91 E0
 40 20 AE B1 B6 A7 64 EC CC 76 A3 AC 54 C7 F8 7D
 A2 AF DD 09 DF 8C 5C DC F8 38 34 3C 68 E1 E7 75
 16 8A 23 DD 8D 96 CE 04 CE DB 74 09 AB EF A4 3C
 8B 66 66 75 D9 B0 C3 45 28 77 19 D1 52 4A 05 23
 D1 A3 89 E7 C6 8D 80 06 98 59 4D 57 AA 9A 9F 06
 46 91 CE 33 0E 8A B6 D8 5F 8F CC 5D 8C 8B 3C 38
 67 B8 45 8F 96 46 90 6F 74 64 C5 9D 71 1C 57 91
 10 69 5D 97 15 88 EC E7 F8 74 24 93 6B 04 39 DD
 68 F7 F9 7B 20 BC 20 CA A2 D3 EF 7F 21 80 A9 03
 52 E7 07 84 BD 37 8D A9 82 DB A2 CA 2D 6F D6 CA
 29 FF 0B 86 5D 04 4D 25 95 C3 19 57 2A 41 28 8C
 EF 03 BD 17 49 87 5D DB 95 77 C0 0F 0C 80 B1 F2
 AA 66 D9 8C 38 D9 71 14 6B E2 A6 6C 12 1F C7 DB
 1B 6C 88 02 97 CE F9 C7 4F 81 4D BD 98 2E 0D DF
 03 03 94 84 7C B0 AE F7 A5 57 E4 52 65 54 4E 7D
 45 CB E9 04 32 E5 2C FD 01 0B 51 FD EF 45 C4 DA
 DA 77 D9 10 4F EA EB E3 30 07 C0 48 89 58 15 02
 27 93 99 A3 DC A5 76 98 66 2E FC 22 B9 24 5D 2C
 58 09 2D DA 55 F4 34 C6 AC 2F F7 F8 F0 A9 56 6F
 2B DD 02 46 BF 62 B7 33 15 D3 F4 83 A0 A2 48 6B
 B2 94 A1 A7 E5 E9 3D 57 AA B2 69 07 C9 24 F7 8D
 30 9F C6 C9 25 3D 78 64 20 E8 D8 01 E5 B1 E7 24
 A4 05 46 22 05 58 CA CF 7D BF 76 F4 E2 F8 D3 FC
 2B 9F A3 86 EF 4E 86 67 AC 27 F4 F4 E4 A9 37 07
 56 B4 8D E0 FF 92 11 89 1B 82 CD 32 50 13 D8 AF
 DB 51 18 2D 02 D2 C4 09 AE 12 0D F6 0B EB 8A 3C
 E0 93 37 05 EE F6 83 CA 93 F2 93 65 13 A4 00 36
 E5 1E 10 A0 04 02 C5 DD B3 E5 2E 6E 9F A5 90 11
 48 52 D2 30 17 8A A0 19 10 91 A0 CA BC A9 2B B5
 5C 99 06 C4 79 34 6A 01 33 E7 E6 9C 79 63 8B EC
 79 CE BD 54 66 BF E6 C8 2F C2 98 A0 A7 98 E9 E6
 F9 92 91 92 43 B0 EB 12 2B 26 05 86 D6 F6 62 F4
 9A 69 2D EE 9A 37 7E 49 66 F1 31 46 04 65 7E 88
 86 96 89 EB 69 39 9C 4E E7 68 E4 38 AB C5 DE 9E
 7D 24 8C 6F 63 80 6D BA 45 10 62 1B 04 51 A4 79
 99 30 12 F2 BD B0 AA AC A9 C4 17 4B C6 84 21 D6
 F4 1F 57 16 78 E6 8F A2 E9 7F A8 DC 1B 79 79 C2
 CF D0 B1 00 82 CB 0C 5C 94 C7 CB F4 31 15 48 F3
 91 CD A3 11 BF F8 71 E8 2F 8F B0 06 39 E2 6D 07
 27 38 FF 16 C1 0F E6 C3 A2 7B 46 EA 62 5F 44 C9
 16 08 97 74 D7 E8 B1 84 0A AE 5F 8A C3 9B 47 DF
 47 E9 05 95 AF 63 63 8B C7 13 F8 8B EA E2 03 74
 5D 1C DB 12 75 7F FF 65 CE 92 3A AE 60 04 A5 1B
 5E 0C CB EE 24 00 95 A3 7D 86 59 F9 18 73 94 DC
 D0 56 01 DA 9C BD 4E 59 8D 86 DC 6D C9 5B 56 61
 10 A1 E2 85 4F 78 3D 91 55 9D 66 94 F8 7E 17 92
 87 50 B0 B9 D5 DC 9D 6A 37 95 22 6B AC 0E CC 0C
 D6 CD 7B 6B 7C FE 3C DD 77 E4 BC 7F 36 4D 0C 91
 AD C1 2F 72 CC B8 21 14 AC A9 A5 FB 6E 43 86 64
 E1 AD 02 8A 79 8A 5D 66 81 20 D9 1E 0A C8 AF B6
 9C 6E 76 34 CF D9 1B 55 E6 40 5C 00 8C DE 12 1C
 36 5E FB 27 0F C2 58 65 D8 D4 BD A3 0E 50 01 93
 CD FA 11 AF 7B 94 E6 47 C0 5C BE AA 13 13 CA E7
 3E B8 0D 4B F9 FF 38 B1 C4 EC 75 FC D9 A2 8A BB
 2E 09 85 05 37 08 C2 C7 16 DA 08 5D C5 EA A7 EE
 5F DB 49 D8 A7 BD AD 59 2E F7 3F 2C 69 E9 EC 95
 BE 82 13 A4 8C 08 25 55 FC 08 F8 81 5A 55 98 8B
 6D 3B 05 94 49 BC 2A 05 64 C1 A3 80 9C BF 64 7A
 B5 BC 5B 00 79 C8 A9 FE 87 45 3C AE FF C7 6A F8
 60 AB 4A B3 FD 4A 3E 63 3D 3E 3E 2E 46 61 C2 FC
 5C 98 0E 00 B5 3D 83 19 F6 F5 59 E5 7C 3B B1 DD
 78 49 1C B8 79 82 BE 36 01 93 15 6F 12 60 CD 82
 7C F5 52 6A 47 85 2F F2 38 0F 21 EB 20 90 0B 29
 AD C2 7E C9 43 0E 02 80 07 D5 B7 E4 44 18 48 E8
 E8 B5 02 D3 40 CC 7C F9
* End 2882702140 2361727211