* LTspice Encrypted File
* 
* This encrypted file has been supplied by a 3rd
* party vendor that does not wish to publicize
* the technology used to implement this library.
* 
* Permission is granted to use this file for
* simulations but not to reverse engineer its
* contents.
* 
* Begin:
 A1 3B 6A A0 1F 90 77 6D F4 D2 B9 68 55 4B 3E B5
 B8 E9 2F B6 0A AF 78 A1 37 3E FC 3E 74 93 4D D9
 4B 8A 61 C8 E7 E8 07 1C A6 F4 75 DC 6E 3A FE 63
 AF E8 C8 3E 69 DC BD 92 D3 09 92 AE 80 D1 60 0B
 D8 31 48 FA C7 6E CB E8 2E C3 53 B8 39 BE DF 7D
 48 A1 C5 09 98 52 D0 86 9C 42 AF 91 FE CE BD 6C
 14 E9 1A 3C 38 95 38 FC C6 58 BC F3 8B B5 C0 1D
 44 CC 42 CF CA 33 62 6E 59 44 AF E7 72 6D 18 67
 20 59 A0 D2 5E F0 02 DA 25 3C 92 EF 96 6D AD DC
 73 73 D2 3F 22 31 3F DA 56 6B CC 4A 0B 80 2E 1B
 75 9B EB 4A 5E BD 97 69 AF B7 C1 F2 B1 E0 24 D7
 20 26 67 79 70 CD FD 73 A2 74 AB D4 9D 5F 10 AA
 62 66 1C 70 E3 A4 AE B1 91 81 61 1D 0E 6E 3B EB
 CC 89 BE EA 6B 74 9C 1F F8 61 00 4E B5 FC 8A 4E
 7F 99 32 3B AE 7A 3B 5E 71 B9 F5 34 90 F7 51 07
 6A 9A 2F D5 69 19 B6 CF 60 D6 F4 41 56 37 2D 69
 C7 0A 25 5F D4 AE CF 59 C3 71 0E 4E E1 96 AF C1
 6F B1 98 3E D9 38 69 67 2D E4 3C 8C 06 BE 84 6E
 C7 2D F6 23 E7 23 AA 09 0A DE 6B 40 98 FB 48 C6
 0C EB 6C 95 7F 7D BD DA 5F 23 17 DB 35 61 86 D1
 FC 27 06 D2 78 86 38 C9 30 15 0C 75 66 44 F9 B4
 40 12 0B 2A E3 30 AF D5 0E 9D 6C DF 29 4A A0 6F
 47 34 50 C1 92 50 D1 17 A1 26 08 B8 53 E8 3C D3
 68 C5 75 14 97 2A F9 2B 5B 3F E7 86 01 7A 04 5C
 8B 55 F0 B9 14 82 E2 3B 64 BE 90 76 F9 94 10 6E
 8E 2A DF B2 8A 86 56 62 A6 AF 05 3C 66 71 F1 3F
 18 9E 7A B1 C9 07 1F 0B 37 C3 27 86 4E 34 85 67
 0C FE CB 0E 32 2F EA 76 77 35 88 1B 42 8E 7F 07
 F8 42 45 27 95 8D 81 45 D8 5B 3C ED DC 65 82 8D
 44 5A 4E 69 28 29 D4 C9 F7 05 4E 9F A5 2F 43 D3
 92 01 C3 CC AE BF EE 02 F4 18 61 76 82 24 4A 9E
 BF 41 88 1C 4B 23 ED 03 04 16 4E 3C 57 84 A3 25
 D8 F8 47 A7 91 0F 13 21 F1 40 58 A6 37 26 A5 E1
 1C EB 73 4B B4 A7 83 6F 36 B5 CB 53 6C C2 A2 AD
 A4 DB 3F 02 CC DE 2A DD 56 72 53 7E 20 8A 9C 71
 00 22 B1 A9 86 24 DE 9E 32 6E 53 9F 49 D5 0B 3E
 85 CE C0 55 EF 70 E2 C3 62 A4 8A 15 24 1D 20 BB
 03 38 D1 8C D0 C0 6D 57 71 02 16 02 E9 AF 7B 1B
 D4 E5 7A AD 7E 5B 5A 6F 83 2A 8F DA C8 BD 9E E9
 A3 51 64 98 FD 8C F9 D9 02 5B 77 14 AF 58 3F 68
 BC E9 3B BE 51 8B CD E0 68 70 ED 7B A9 98 7A C2
 97 C4 7A 85 8E 20 9E 80 62 68 35 29 F6 8C E8 DE
 7A 0D AF F9 A1 80 30 3D C6 42 55 D8 04 48 37 AC
 FD 9D 60 68 9A 21 D2 A0 BC 82 B8 27 B0 57 F5 EB
 32 FF C3 50 30 AF C6 D9 97 EE 4E 38 11 A4 5E 11
 3D 02 71 57 B0 C2 C5 A0 E2 52 2C 42 C2 14 26 D4
 CE 18 61 C8 BD 08 39 17 A3 02 26 D6 A5 4D 49 C2
 89 83 C3 E8 4E 2D A0 3C 15 03 17 DD D7 77 83 22
 36 8F FB 06 40 DC 75 B7 FA D6 AC A4 63 01 E1 E9
 A1 64 FA 29 BD 51 F8 A0 D5 4B A5 A4 4D 3A 93 F8
 CE 41 7B 98 34 0A 38 DD 27 3F 28 27 FC CA BC F7
 BE 20 01 18 54 CE 34 D7 DD AF EB 86 8F DC EC 6D
 09 D7 3A 10 2E D1 2B E8 A5 1A 7F EE E9 CB CB 26
 C6 0C 9E 9D DB FD 36 6C 28 EE 37 7E B1 D2 88 5A
 22 5E F3 DF 4C A0 F6 EF 08 A3 33 63 A4 87 06 E5
 A2 27 54 C0 BA E6 D4 1A D8 A0 B0 C9 15 91 7B 06
 3A 2A 78 FA 55 C0 9A 58 7B 94 90 AD 5B 27 AF AC
 7C ED BE 8B D4 C5 44 B3 6E E6 0C 99 20 E3 7E E1
 81 46 10 0E BF A7 A3 E0 5D FE F8 7F 8F 78 CB 92
 0F 33 50 CE 6C 90 25 C5 C1 98 E0 8A EA 5D 86 94
 A2 2C 8F 0A 74 60 4A 21 24 4D 1B 35 96 E8 7E C2
 69 A5 E7 97 20 0F 57 22 26 33 B0 7F A9 AA 30 6C
 9F 1E EF C8 70 6B 02 7A CB 58 C3 3E D3 B4 F7 99
 0C D6 EC F2 24 AE 06 E7 C5 BF 20 A9 3B 68 AB CF
 A2 20 82 97 59 BF 23 FD 73 2A 2E 17 73 C1 66 E9
 FF 2E A5 DF B9 9C 6C 3C 3D EE F5 2B E2 FB E7 E1
 EA 58 A0 72 A7 98 44 B1 47 83 36 55 3B B9 27 6A
 29 81 80 00 D2 F2 50 FC 06 2C E1 82 19 C5 4D 11
 D6 F0 25 0E E1 2D 14 11 75 15 09 A4 A4 92 F0 AA
 08 A0 C2 B0 25 EE A4 7B 78 9D 2A 49 3E EE FF 5D
 F5 50 D6 66 9A 6E 19 B7 5E 29 85 39 DA 55 B8 DB
 19 CF EC E6 D7 DD 39 40 0C B5 BC 70 22 B8 8A AB
 6D F6 FD 60 80 FD CB E9 C8 DF 0A 52 AB 0A 2B 3A
 4D E3 AC 2F 9F 6D D8 AA 94 F1 43 C4 9B 12 B9 22
 75 05 D7 CA 70 2B A5 55 AF 33 0C 8D B4 1C CC 9A
 D4 4D 9E B4 CE 91 FD 0D E3 99 DB BF 6A FF C5 FB
 80 97 44 E4 4D A7 BD FD 16 F2 C4 70 47 B2 DA F9
 DB AD 62 F4 0C D5 DE C3 32 CA AD 60 F9 0A AE C8
 79 0A 62 F0 BB 74 0C 25 65 0C 36 70 EB B4 1D 41
 43 FA 29 29 63 73 C5 84 8A 37 C3 AA 3F 3F BF 46
 AA CD 08 ED 90 5B FF 0B 07 76 CA AA 88 2A 94 3A
 D1 86 49 04 76 C6 DC 5B 30 26 EB EF 5A C0 4F 81
 FA 3D 4F 06 12 7D 6F 7D 95 46 18 25 37 08 0C F3
 88 EA 76 4B A3 FB 6C 29 1B C6 35 9E E0 11 CE 76
 73 6A 13 A9 1E 53 83 25 10 5C 91 65 16 0B 07 78
 F5 C2 3F 77 57 4D CF 35 C1 79 0B 2B 05 80 25 03
 EF 64 F0 D3 AA 22 8F CC 86 CE 24 9C 83 6F 75 78
 12 48 8D DD EE 5B 5B 56 A2 EB F8 0D 48 0D 0F E3
 73 07 00 07 61 E5 9C 8E C9 DA FF 90 A9 FA 4C 08
 23 CB 2F 5B D7 1B 34 AE AB 51 5A 7D 20 5D 40 43
 22 E0 33 B0 A9 C4 49 29 CF B5 B9 5D 06 60 41 AF
 8A 68 C0 99 52 BE C0 E0 8E C7 6C 5B 9F DA 95 67
 7D 27 FD F8 25 10 42 FC A9 D7 A1 8C F9 FA EB 88
 B3 F1 15 4A 5E 73 C0 12 F9 AD 5E 6A 24 58 C7 DE
 89 5A D5 54 BB 62 32 8B 6B E6 D9 19 FF 6E 51 25
 1B EC 3A 5D 95 76 AE AF 8C 7C F3 2F B8 D3 53 9F
 06 0A 9C 0B 0C E2 E6 70 65 67 9B DF F4 40 19 32
 70 E6 CA 95 5F 6B 7D 7D 1C 10 41 43 46 27 94 F6
 91 3F 5F 07 3F F0 33 3C 99 0F FF AE 60 4A CC 30
 0B 83 75 43 ED 33 7B 1A 75 11 76 68 75 3B 89 4C
 8C 7D 34 76 45 95 B3 A5 0A 91 69 6D 15 7C BC 11
 DD F7 F5 1C 23 BE 42 E9 CC 7E 51 E8 35 9F DE 8B
 51 40 9A EF E2 B8 2A 07 71 BB 42 6E 52 8F A1 AA
 93 31 60 5D 15 45 19 A0 61 8F 51 49 80 C1 E4 27
 31 39 62 BC 52 E1 7D C4 9E E4 60 81 47 48 87 46
 0B 88 32 3A 87 B6 62 22 AA F9 81 FA 80 C8 D7 53
 ED 20 22 AB 5C D6 5A 7B 13 87 7C 83 78 CE 45 C0
 1C 31 99 DC B2 21 54 E5 E7 92 27 AD D9 2A 52 00
 A3 CC E0 C5 72 50 FE 79 B4 F8 27 FA 81 C1 F2 87
 AA 87 53 9D 49 15 82 D4 F0 7C CB 5C 2B 3E 38 D7
 28 A4 D7 9E 2A B1 7E F5 5C AC E9 45 DB 77 34 08
 C5 79 74 85 36 A6 DF B7 08 2F EE 8F 94 F0 8A 7F
 06 D8 86 F8 B4 BE 06 57 BA FF D3 98 14 35 A1 6F
 FC 9F C9 06 52 96 E1 0A 2F 2B B1 4E D3 88 AB B8
 0D 64 0F 67 79 B2 75 ED 57 76 9B B4 B8 3D C7 B4
 14 C0 CE FD D6 32 E3 86 7B F9 94 A3 42 04 6E 6B
 5A 23 F8 AF A3 D8 8C C5 41 B8 B7 F0 F7 05 E8 9A
 79 53 8E 35 F8 1B 36 C4 72 A2 07 6D 0D 09 53 80
 45 C9 5F 0C 0C BD 90 78 DD 2E E6 35 F8 39 B1 5E
 88 81 7D 02 BE 54 FE 3D 48 9E C3 06 50 5E 6E 9D
 B2 DC 20 96 66 90 09 A6 D0 DD D6 A6 93 D5 7D 58
 93 90 63 BB A7 11 BD AE 04 4E 39 03 AC BE 1D CE
 B3 69 C9 83 18 9D 23 94 3B 87 61 8C 60 D4 F7 3A
 06 10 CB CC 7D 5C FF 83 8F 6F 0A 62 FB 88 51 C0
 CA FA 8B B2 57 B7 A7 B5 80 21 BA 3C 7F 67 FB 07
 6C F7 01 45 9E C6 54 6A F0 F1 E9 8D 11 E0 62 82
 78 ED C5 37 6C EB A2 2A 95 D1 8E 67 45 74 25 76
 65 F9 39 57 1A EF F6 2C F5 AB 74 8A E3 5E 1D CA
 07 0D E1 99 51 90 60 6F DE 72 C4 3D 00 59 7C 8A
 B6 86 FB 78 6C FC 12 59 BF DF 45 A6 B5 B3 B7 E2
 A9 A1 9D 1B A6 7D 36 8F 5A 48 3C DD 0E B5 02 FA
 36 F3 35 80 8C 28 16 15 4F F3 CD AB CA 76 21 85
 83 A5 9A 63 B5 3B C1 5F 2C 05 17 0B 68 CF B0 E6
 69 7D AA E2 D4 05 17 57 94 B6 29 D7 D4 99 D6 15
 D5 52 76 54 73 F4 3C 2B EE 86 4E D0 96 57 23 A7
 84 F5 45 98 92 32 BF 00 A0 63 1A 0B 19 EF 68 0A
 B3 42 77 A2 5D F9 E3 06 E3 B9 6E 90 72 44 86 AF
 1C 4C 74 96 0A 28 12 01 86 5A BC 18 83 10 36 7A
 47 83 5C 23 20 79 93 AC 6F 84 7D DF 03 43 4E 79
 1C 66 89 19 3A FF 16 19 99 A2 5B 75 76 6B 72 83
 C0 F0 43 59 DA 61 34 1B A9 7C 90 12 85 2B 7A 8E
 FC 3A 78 2A E2 6B 28 91 E8 75 1E 73 51 13 7F A8
 4F 62 4D E3 88 00 8B E4 6B C5 28 4C 0C B1 43 70
 84 26 CC 7E 6B CE A2 97 98 E5 A9 44 C1 CE 99 63
 F3 A7 27 88 6F 1B 68 F7 8C 5E 87 05 16 6C 96 07
 E1 7B 64 5B 72 2D 95 35 72 F3 8C 5D 33 4A DF 89
 1B 5A 64 5E D4 6E 3F 9B 28 BC 30 EA 27 80 12 CA
 6D 79 46 BD A1 5A BA BC 8E EA 6C F5 88 F2 4E 87
 22 17 FE CF 84 17 9B 30 04 B6 49 37 12 A4 1E A6
 D6 EA DF 0E E3 3A 1C F4 E8 4B 8F 73 77 BD 31 2A
 9D ED A2 4C B3 90 14 1E C6 04 6D 94 FC A3 CA 8E
 62 2A BA 9E 44 ED 4D D1 8D C6 0B AF C7 C0 E6 62
 13 FD F6 0F FF BC 7C 09 F4 5E 9A F8 7C 20 3F 62
 8E 9F A3 62 97 C1 F0 51 FE 5E F9 B6 CD 7D 3D 4D
 8E 26 F4 D6 60 92 AF 33 E7 71 81 DE CE B3 BE DA
 FE 5E 94 92 26 ED A5 A2 B5 1F F0 C9 54 6D E0 59
 57 41 5B 97 41 26 36 07 E4 FE A0 4F 56 54 BF B6
 D5 F4 7E 19 0B 77 22 DA 54 4B 12 FC 86 DC 80 09
 2C 1E E9 AA F9 49 A4 B2 A8 2C A9 18 00 20 98 85
 9D 02 EF A0 0E BD D4 16 A6 8B E6 97 9A 9F FC 2C
 E2 36 CB 58 F7 6D 44 77 E8 4C 76 72 29 C2 CE 66
 62 0F DB 40 A4 CD 17 2D B5 6F E7 4B C2 90 93 A2
 17 C8 4D 6D 85 09 EE D2 BD A1 8D 4D 84 04 C6 E6
 DA 58 B5 71 DB B6 F9 40 95 28 3E FC 3F 81 D0 45
 21 81 25 81 B7 96 64 F8 5E 0D DD 58 50 0F 05 09
 F1 DA 70 0B 60 E5 C4 BE 43 F1 50 16 A1 06 4E 2F
 1D 53 65 4E 48 72 AF 9D D0 E9 9A B3 18 09 22 5E
 98 CE 79 C5 FB 24 0A 29 2D 83 1F D4 A9 A6 F2 EC
 39 AB C5 9C AC F7 DD BA 11 46 93 02 D5 8F EF 23
 1A C2 C7 4F BE 45 1B 5F 72 9D 3E CD 32 7E B8 97
 B0 8C EF 6F 05 EB 32 06 DF B7 A0 F2 52 B4 0A 25
 71 32 3F FB 51 2E C1 83 51 E9 91 15 5D B8 F5 F1
 BA 30 17 C6 73 67 92 57 83 C8 9F 63 CE 4B F6 4B
 20 C1 9E 3A E3 E0 CE 0D C7 CE AD A2 DA 96 E9 7C
 27 C9 DF 53 87 2D B3 EA 82 0E 8A 61 43 5D FD E1
 92 3D 69 CB C7 7D 35 26 1B 3F 8C CD 83 29 8A 07
 06 3D B2 58 34 AB 1B D0 22 17 FD C2 BC 61 45 D8
 6F C3 5D D5 C1 90 0D 04 A6 33 15 37 0A 22 40 4A
 D4 A7 62 0F 30 B9 CE 48 60 8B 0F 1C C1 1C 8B 67
 E3 A2 4F E6 BB A4 EB 2A 96 AE F4 5C F2 78 6C 01
 7E BA 88 78 92 6B 76 D2 93 77 91 3D CC C5 16 2B
 F3 05 64 96 37 8E A5 CC 9B 45 AF C7 8F 39 6E 4A
 41 20 B5 17 A2 B0 F4 DC C6 17 99 9D BC FB 92 6E
 7B 19 73 FD B8 C5 64 2A D5 E9 CA 07 3A F5 68 7B
 10 70 12 6C D2 04 2A C5 24 52 A4 D0 75 65 65 C4
 6B 69 3E 99 2D 9C C9 AA DB 65 5A 26 6A CA AD A0
 4D 60 30 31 11 26 D7 0D F8 57 AA ED 6F D3 BB E1
 C3 EF F9 78 61 33 63 52 FC 45 EC 19 1A 4A C2 3D
 E8 0C C8 DE 31 19 2E 8E B5 DF AB 71 73 72 7D 59
 75 0D 1E 50 8A 5D 6F 77 34 9C 16 80 DE 92 30 87
 37 67 04 50 40 8A 72 73 94 55 3D 1E 1B 6C 67 AC
 F1 EE A2 C3 1C CA 4F 60 D5 6A FF BB 00 37 8C 1A
 78 17 F8 4E BB B8 73 92 E2 3F B5 D1 12 53 02 E2
 64 DF CE C5 3A D1 C7 CA F1 2B 92 30 4B 44 75 12
 91 C6 8F 5B 8E CF 67 8E 40 BC 1A F3 CB 88 8C FD
 93 9D C0 CE 04 41 CD 5C 63 87 2A 11 5F 97 48 64
 25 C3 B0 56 D8 D6 87 FC D7 32 38 A8 BA BE 5E C8
 B9 09 FF 8C 6F 67 38 4D CD A2 3F 61 C7 98 F3 91
 1B 85 78 55 17 D9 C3 83 4C CB CD 3D 16 8D FF 03
 DE D7 01 1D 15 0D 8E 63 D3 1C 5B 3A 30 C9 9C 17
 BF 34 24 71 4D 90 D5 5E DB D8 9B B2 1C 7E 81 AC
 F7 3C 3C 23 D4 1B 1A AC 8D 4F 71 22 D7 13 FA 92
 72 E3 20 F6 0D 99 D3 70 F1 14 E1 BF F8 57 9C 03
 9E 30 00 ED 34 A9 4D 69 98 87 25 14 06 80 12 6F
 7D 1F 9D AC F4 E8 A7 F4 EC 1A 8E E0 96 27 E0 DC
 5B 11 85 B9 FC B1 A0 91 CC EA F0 CC 43 1B 73 EB
 FF 6B 06 DF 45 C6 7F 70 72 DD 49 E5 B1 DC 74 AF
 C9 72 7F 84 22 D5 15 55 EF E3 84 E5 96 A0 64 9D
 68 06 D9 4E F2 A6 B4 CA B2 BB DA 3E 73 46 93 54
 F4 66 5B 60 44 01 09 43 8B 1F A0 D4 8C 34 D8 3C
 84 09 50 D7 D4 69 04 2B 10 05 6D 46 8F 2F BC A4
 75 26 12 16 08 5F 3E EF B5 76 28 F4 9B A6 39 CE
 A2 CB EA 32 F0 B8 39 C9 1D 00 4C 25 06 F4 88 32
 CA 3A 55 4E ED 83 FB C9 B9 B8 58 60 2B 36 BC 75
 39 6C 25 82 20 26 C3 FB D4 11 7E 7D F6 4D D2 2E
 4D 9C 48 1B 05 75 08 6D BE 82 3D 4D E2 94 EB 95
 24 4E 4F B5 5B DB 36 2F F6 A2 5E D3 95 69 0E 3F
 C2 97 6C D8 DE BB 1D 88 9E 5D D1 C6 00 AA 17 53
 A2 D6 98 72 8C 73 FC 2A 3D 37 EE 6C 4F D7 7C 59
 F6 85 49 D7 29 09 A0 60 96 9D 10 68 6C A6 FB 74
 33 2B BF E3 6F B0 1D B1 DD A8 BD D8 F7 D7 CD EA
 0B 1C 5B 10 49 3B BB A5 74 32 82 06 FC EF 23 44
 FC 6F A5 9E 81 B5 8B 26 8C 24 2D 14 35 D8 31 D7
 8A 45 EB 21 B6 5F 96 F0 0D BE 49 A9 89 93 6A 1B
 48 7D 2F F5 CE 45 C4 60 F7 12 E7 20 A6 BC AB C2
 28 81 A5 2B 45 A1 1D 2E 88 F2 CE 98 3B 0C 4E 51
 BE 7A 57 EE AD 4B D1 2B 47 D8 26 95 73 A4 FB 99
 6E 81 EB FA 0C B9 BE 0F 6F 3E CF A5 31 4D 81 D0
 4D A0 7A 46 2C 0A 0D D1 D2 B4 92 0A BA 1F 17 D4
 CE DE 76 58 76 FE 6C F0 DE 21 E0 B4 86 57 ED E0
 E5 2B ED 03 E6 A9 2A B8 1F 21 65 65 CF D5 42 57
 F1 D7 14 B5 AB CC 85 BB 30 24 B7 E9 B4 8E CD 32
 64 7E 92 5C 88 A3 D1 34 9A AF 4B 2D 99 BC 1D 7E
 78 13 21 38 C4 71 9A 4D 61 27 2D 68 F0 59 5E 0B
 B4 7C DF EE 72 30 94 07 12 0A 30 5C D0 2E 7B 37
 1B E5 5C AB 2A 7C 83 A0 EE C0 8D F6 5D 82 0C 25
 16 49 DC 1C 61 E8 68 B1 68 1E 56 62 E8 83 5A AB
 14 4E CC 20 9C F3 0E B3 5F B4 84 6B 84 63 AB 41
 94 55 4E 73 6E F4 6E 07 7E 53 28 D0 97 A5 E7 6C
 A4 3E 10 1F D6 7B D2 60 1C 1F 4B B7 0E A0 B2 E9
 B0 B6 8A F1 53 CD E2 8F 5A D7 8E 30 3D AF 15 A7
 48 1E 40 49 DD 04 55 28 91 CE 4D 7B 31 B6 8C 63
 79 FD 75 56 00 59 7C 97 04 CA E6 4B 2E E0 97 D9
 79 39 C9 03 D5 39 E0 74 D9 DA CD 8F 01 BF 0A 01
 51 20 31 2E EF 4C 5E 7A D1 52 76 65 CE 8A 12 FC
 D7 CB 2C 3D A3 C7 11 45 43 4E 28 88 A5 68 1B 18
 7A E9 D3 35 AB 50 58 40 38 B2 F9 8C DF 01 49 C5
 1F 01 75 F0 E4 B1 E9 8E 2F 7D 1E 00 09 31 36 8F
 A1 4D 5C BA FE 29 97 0A ED 37 A1 6E FC 17 61 05
 B6 1F CF FB 32 47 82 EE BA 36 0B B1 F7 8A 50 0F
 D0 97 FE F5 BA B2 60 97 D9 07 1D BA 87 D4 4E FF
 FA 49 9A 94 C6 EB DB 32 9B 74 AF 39 AE 1F 42 CA
 22 0C F1 C9 3F B3 73 9A 7D B2 1F 2B B0 5F 77 02
 D0 BE BD C8 E9 59 3F 28 FA E3 83 29 5C B9 0F C4
 B3 91 D1 78 92 F5 33 39 88 72 71 1F 5E B5 49 2E
 92 62 F0 8C F9 8B F3 7C 0D 9F 84 E4 87 81 E6 47
 74 B5 BE 47 E3 B4 1C 6A A9 9D 84 18 64 0D D9 26
 14 5A E7 C1 9C 3A DB 3B 57 27 CE 8D 0F 35 3C 2A
 01 99 17 A7 71 4A 11 72 5D E7 68 E2 90 80 66 64
 A0 F1 8D 61 1D B1 A4 E3 FF 41 CF 52 8E FD F4 2B
 F1 0A E0 0E 05 C1 9C F1 AA F1 CC 24 07 72 06 F1
 4C 63 A9 DE 35 9D EE 0E 2A 6A 26 05 2B FF 50 63
 97 2C 71 86 79 2E E0 62 D7 5B CD 02 34 D8 9C A7
 BB 98 FB 42 D5 80 1C 0E 0C 48 82 0E 16 D9 18 44
 7B AE 85 35 10 3C F3 C9 CB 28 B7 74 C1 0B 87 BB
 FC 5A 61 17 5D DA 97 BD 44 BD 2C 65 E7 B2 FE CD
 35 3C 92 8E DA B8 98 DE 16 31 61 09 4F 07 DE 30
 3E CC F7 50 38 34 15 37 FE 97 E6 1E 30 09 E7 DC
 8F 34 91 C3 42 A7 EB 76 87 7A 49 22 BB 20 EA 06
 92 F0 00 29 1E DF 21 36 C4 58 3C 84 34 71 FA A1
 D6 84 BD D4 68 58 B4 CF 89 C2 7B AB FA 9D 10 6F
 4D B4 B8 4C 13 4B 3A 3D B8 EC A5 75 2A 55 E7 CE
 FE 76 E9 E0 CA A5 B0 9D 4F 96 2D 30 E4 E6 50 6C
 C3 D1 23 C6 7F 0D 6A 5C 14 72 47 3C 39 35 5D 25
 BD EC 58 C7 A0 9F D2 70 3C 0B 46 F9 45 08 84 98
 5C C2 17 B3 26 C5 E1 20 56 38 77 4F 10 7F 82 AF
 6C 3C 1F 2D B8 BB 0E 0C 7C 99 3C 7D 8C E1 1E 60
 5B F2 42 5F B5 CD 11 53 75 ED 45 4A 33 EE EC 1C
 52 28 68 5F 22 BF CA 1B B0 26 3C 01 80 6A BF FC
 FA 33 E7 57 50 05 37 B1 F8 AD C9 A6 34 44 70 F7
 60 04 BB 78 03 7E 4A 23 E7 7C D5 4D C3 2E FD C8
 8E C6 46 BD A0 FB 19 96 CE BC 56 5D F2 FD DB 54
 FB 92 21 F7 31 93 44 01 E9 89 7D 9D 90 98 D2 37
 70 47 FE FE B7 9E 74 0D 6A 7E D8 04 62 86 A5 8A
 25 E1 DC 75 DB 45 E7 68 87 BB 5E 99 26 07 BA 55
 A7 E9 BB D7 63 5A 82 97 BF 5E 5A BA A4 33 3D C0
 FD 03 E1 F5 37 B3 11 20 88 20 64 0D 4C CB 59 81
 B6 EE 02 9E C2 7B 6E D2 59 2F D6 8E 82 1A CF F0
 0C 12 29 4A 3B 48 65 C7 63 E3 14 65 60 82 58 5B
 C8 2C 35 93 DE B0 71 22 CA 7B 68 37 57 43 5F FB
 83 F2 99 EC C8 41 F5 9A 3C D2 56 2E D2 1C 67 08
 9E B9 4E D5 EE B9 DE 05 1F DE 95 65 DB AA AE 8A
 FF 6E 28 0F 03 C5 6F 35 68 01 B6 90 FF B3 50 A3
 03 85 B0 7C 66 A1 85 2E 26 89 8A 33 31 2F C1 A1
 48 7D 73 3E C6 87 DA BF 50 8C CE 40 8C 95 58 93
 7D 97 C2 E0 08 22 04 1A 87 A5 94 6E 68 79 DF DD
 01 18 CF A1 B0 BF 80 FE FC E5 29 68 0A 02 9F 21
 2D 20 65 DB FA 87 2C 65 15 E5 A0 EE 17 95 7B 66
 53 F1 61 C3 55 A0 8B C0 00 6A 49 42 44 D8 A2 EB
 4C 05 1C 9C 13 7E 77 E7 46 C4 01 75 82 0C E2 AE
 E1 8A D6 85 85 E4 90 81 CF D6 61 83 F1 6D 23 5F
 AB 3E 42 A9 01 CD 90 A6 1D 0F 76 6B 5F 6C 69 CD
 FF 99 D7 87 A9 F2 0D 46 FB 5E B3 C3 75 CD 81 37
 9D C0 85 08 8D 42 5C 07 16 40 4C 28 DD E5 AA A1
 D6 6A 8A 3E 13 44 B6 01 5D 21 94 77 18 96 9B B0
 67 12 BC 55 26 1A 4B B8 57 3C 9A CB CD 26 FB 99
 4A 29 02 F8 17 ED 6C 23 71 1B 8E DD D2 84 81 33
 A6 B7 E4 E8 BF 79 00 0D AE C2 C4 CE FF 9D 81 B1
 F6 C2 E8 EC 18 58 48 7D 69 F6 38 CC DC 44 19 00
 E0 33 BF 86 A3 B4 CC DA 39 9C 63 3B 2D E7 F5 3C
 AE 61 F8 51 D2 2B D8 A8 C7 32 92 FE 94 D2 1A 9E
 46 F1 3D 09 2A 50 15 C2 6E 53 63 64 64 6E 54 D3
 28 55 15 36 E0 D7 BF D4 B6 74 EE C2 2F DC 33 A0
 1E EE A1 B7 A4 98 B6 A4 8D FA CC FE AF 46 BC 31
 27 5F FD BD 23 85 CE 2D 7E A4 9B 65 AA DA AB 9F
 70 EB 00 E6 A3 58 AD BD CE 79 AE 51 18 83 2A E2
 4F F1 AF 8E AE 22 96 64 00 F0 85 0D 7B 16 B1 85
 11 59 1E F0 7E EE 06 D5 C0 5B 73 21 0F AB 6D 07
 9A A4 04 F5 03 0D AE 40 C6 01 20 38 0C 91 9F 85
 DA 83 06 1B 95 FB 6A DB 87 B5 FA 16 C6 28 D2 99
 33 35 33 BB 10 12 52 DA 1F B1 A1 A0 26 FF 2D C6
 60 5D 99 5D 35 B7 1C BE B0 DC FD 8E 21 88 61 D8
 0A D1 9C F8 A5 4D 3A E5 37 41 44 13 A7 08 04 29
 B6 7B 34 71 78 9E 3F B5 B7 95 23 92 60 7A A6 F9
 0E 5D 66 9B DB 46 2A 1F DF 1F F1 A3 BE 97 9D 5F
 35 4F B6 52 0D 24 3A 14 B2 57 0D AE 07 FA 8D F4
 47 62 9F 63 59 56 36 3B C5 12 AA F5 F0 1D 5B FD
 00 7F F5 BD EF B5 B6 2E 1F 39 23 61 9B 08 59 B8
 1F 0E 58 56 D7 29 59 F3 1F 02 55 02 17 EF E1 6A
 A0 F1 27 9B 9F 8D 26 F2 EF 6F B8 D1 53 2B 8B 45
 A9 24 18 1D 35 19 B4 F7 22 6E 6B B3 F7 50 49 86
 65 40 48 1B 94 19 26 33 58 38 84 E3 AA 6A 7E D9
 13 25 5D 1D DE 6E 3F C0 B7 3D F8 AB 0E AA 5A FC
 0C 81 C9 EC F7 AA 86 4E 37 51 1F E6 EB 4C 2D 00
 B5 0F 35 25 3A DF 60 45 1D A3 C8 02 95 E9 A9 D5
 58 9C 0C 0B B3 BC 1B 6E CF BE 49 F9 17 DB 1E BC
 E5 B7 31 18 3A 8B 7B 3A 68 02 49 1C 2B CB 4E 2F
 A5 93 47 6B 74 1D CF 8F 61 06 8A 14 9B AC 3F 3C
 A6 52 7A 25 14 43 40 32 BF D5 2F 23 32 CC D1 B4
 0A 2D CB 7C BB 08 4D F7 CD D5 5A 76 A5 C7 A3 CE
 9B 56 B9 66 5E 3D A4 AB 1B 96 1F 75 AD 8F C8 6F
 50 EC F3 E3 86 12 66 C2 FE 4E B2 79 E1 F1 AE F0
 2F 15 71 5E 31 90 0C FE C0 3A 2C 3A 46 EF 72 96
 D4 F2 76 92 C2 2B 55 F7 53 2E AE 79 8F 99 05 21
 E2 11 8A 7A 54 4D 7D 12 33 C2 3F C7 4E E9 65 D1
 70 51 B7 86 28 55 45 5E 3B C3 3C 7E 1B 68 27 98
 47 14 FA 87 E6 48 B7 53 BE BC FB 2A C0 F3 A9 70
 F7 92 08 6A 95 A1 11 0B 8B 64 34 12 EC 26 3B 36
 3B DB 07 9B 45 D2 6A 22 84 6A 7D E6 5B AF F0 65
 DA F4 AC 53 E7 CA 39 5E D3 A3 13 F2 8B D0 75 58
 8E 96 26 3C 3E A0 11 05 02 37 84 57 53 EF 0E 62
 E0 05 3F EE 2B CE F9 5D 8B 67 8D A2 41 64 4F 76
 00 9B 14 39 A1 B4 50 7D 94 F4 E7 00 CC 10 DD 68
 2D 69 A5 ED 9F 76 A5 C0 9C F8 E8 28 E9 F1 0B 2D
 09 A4 F8 34 75 31 59 02 5E 2F 49 79 16 ED 0D E2
 60 2D 90 95 CA 4D 07 C0 C6 E6 51 1A 52 DF E4 C7
 40 F5 0C 06 61 2C 22 7C 0D E9 DA D8 12 2D 97 B5
 F9 70 26 CC 0C 95 6A CC A7 FB 43 A2 2E 08 9A 92
 23 71 1C E9 97 D5 5F 7D 62 DE 74 C1 CA D5 AF BB
 34 6D 13 58 2A BA C5 B7 16 9F 19 99 DC 82 E6 3A
 E3 E2 DE 08 04 DF 02 C9 0D 1B D4 98 5F 39 C3 1F
 2F 84 72 6E D5 CB E2 0E B5 76 1E 2B 2B CC 2B 55
 D6 F3 81 99 F0 DA 85 D0 D5 8A 27 CA 5C AE CE E8
 E6 8E DC 0D D4 BB 97 AD 1C C8 47 3C 64 89 F1 AA
 2D 7A FA CC 7B B1 A7 8C E0 43 FE 22 6D AD FF 73
 CB 66 FF A8 D7 73 97 EA 11 F1 EA 13 89 7B D8 12
 3B 13 14 E5 22 27 E4 A9 BA 77 1A D7 BD 5B 71 10
 7D 63 6C E3 B4 DB A0 55 76 94 C6 3F 33 3B C7 6E
 F5 77 63 09 A7 EF 42 0D C1 B1 EC DE 47 2F 75 E6
 28 C0 DA 04 A8 09 24 C4 9F B7 41 38 0C 55 04 4E
 8F DE 01 0D 49 66 14 89 75 05 59 9C A7 7A EB 0D
 7F 7F 4C 00 F3 99 DE 51 F7 3C 19 B6 02 F2 C2 0E
 A8 85 4E 6A 08 A3 0F D5 69 4B 5F 3D 4F C2 01 DA
 D1 FD C6 6A EC D5 B4 4D C8 51 D9 BD 8C 41 94 CD
 BE 9B A0 DB 7E A7 3D BF 5E 14 2F 15 A7 EB 5B E8
 0B AA E7 F4 B3 96 E7 2D C4 67 6D 1C 44 AE 4C 2B
 8E 73 0B AC 42 BD D7 0E EC 8C 6B 3E 6B 95 A3 93
 DD 64 5C 5F B3 54 03 32 58 32 B8 4A 2B 41 B3 35
 D9 96 9F 4E 8F DB AE 8B 13 F9 9C 34 E8 5D 63 01
 D3 31 91 49 6B AE F2 7A 86 23 09 C2 B5 A8 17 6F
 E1 7B CE 26 B9 1B B9 79 FE 13 15 D2 D5 7E 7B 3D
 F2 97 0C 0F E4 4E 90 6B 99 0B 85 6F E6 4B EA 3D
 9E 03 11 C1 D1 F2 FC 9D 20 8A 6F 26 72 7A 32 11
 57 91 51 BC 41 81 37 E2 3E 43 B0 00 6A D8 AA CE
 BF 87 4A 6F C4 21 B6 F7 F8 A2 1A C0 E3 96 FB 03
 FC 05 10 4D D3 F5 2B 4F 2C FF 0A 01 8A B8 51 60
 C8 B1 AA 63 ED 71 B1 E6 AD 4A 5F 2F F0 8E 61 F3
 7E AD B8 E2 18 AA 74 C2 64 F9 62 CB A1 B3 63 53
 42 B3 C7 97 F0 1B 1B 6C 18 37 18 77 63 9B 7B 80
 EF 92 9D 84 68 A8 CF 98 3A 94 7E 20 25 D4 56 41
 E9 DD A5 79 1B 1E 87 DE 5B A9 4E 93 41 CD 54 FB
 C2 7A 55 C3 48 64 3A 30 10 A4 4D 69 6D D9 F6 DD
 74 BE 98 33 8B 4D 48 10
* End 1574004918 1688987766