* LTspice Encrypted File
* 
* This encrypted file has been supplied by a 3rd
* party vendor that does not wish to publicize
* the technology used to implement this library.
* 
* Permission is granted to use this file for
* simulations but not to reverse engineer its
* contents.
* 
* Begin:
 CF 76 AF 0F 89 B1 E5 F2 43 7D 7C D0 45 49 4D 10
 DD CB B7 9F 5A A0 C6 D6 B1 D3 36 5F 3F F8 E9 64
 D2 4C 5D 91 A1 5D 13 BC 87 D9 8A 33 94 F7 F7 8A
 86 6F 89 29 5D 13 87 EA 79 8D A4 E1 48 C5 E4 45
 6C F9 53 35 04 18 C1 B8 3F 19 7D 04 FD BA CF 70
 E2 8D D9 7E 56 C6 48 E5 AC 34 F1 49 36 F9 FF 86
 37 F5 FC 30 6D 88 8B 6F 22 7F 61 E6 D1 42 F8 10
 B2 AF 83 3A BC 37 1F 71 4E 4C 7B C9 B9 F0 49 CA
 11 A7 D2 91 22 73 F1 C2 D0 C8 55 F1 63 D0 3C 76
 D4 5E F5 33 3B A6 9F 9F 81 97 EE D4 E1 A3 01 CF
 2A 54 8D 90 EB 5E 45 9E 7E E0 1B 93 E3 F3 EA 48
 BE 2C A6 F5 DC EC 6A 86 5B 11 F4 09 38 7F 13 19
 D7 93 7A C1 1D 76 98 DA 57 42 E5 1D 0A 2D 7C 06
 1C 87 11 93 5C D7 60 1E E1 A9 4F E4 33 AB 32 D2
 40 35 74 8F 2E DF DE 89 51 79 51 4A 64 F6 7D 1C
 53 F0 A5 2B 61 AA F3 B7 5E C5 7B B0 6A CE F3 18
 27 D4 40 0E 67 83 59 6F FC DF 29 DE 4C 07 3F 46
 E6 1A 68 C1 67 E5 0A 22 05 10 3D 53 87 5B 45 CF
 AA CF 3F 99 5F C5 06 32 C0 BB C7 28 F2 E1 7D 64
 99 E7 4E 8B 22 05 26 89 C6 1D 01 9E 22 9C F2 2B
 48 D2 68 97 E6 D2 80 F9 19 D2 74 C3 FC 11 C1 C7
 68 19 D5 9C DA 6D 3F 01 94 FD FF 0C 30 D9 50 48
 65 66 7F 74 8D 5A 50 1D F9 5D E8 0D 98 A5 FD AF
 04 C4 C9 1A A3 F7 F7 E7 94 4A 94 BC 0F AA 12 51
 63 06 35 99 02 96 D1 07 FE 94 68 BE FA 9F 27 76
 F1 BB 9F 43 AA 56 9C AF CB ED D2 B2 B3 39 6C 59
 44 C8 2D CA 13 DC 9E 3C EF F9 C4 E5 59 B6 42 A3
 0C 81 03 DA 74 EC 8E 3C 07 70 C4 04 06 09 E6 C2
 65 31 A0 D0 AA 8E DA 2A D3 D1 E5 6D 22 9D B3 1C
 E7 8F 1D 36 A6 13 C1 E4 A2 FB 07 C0 74 F2 6D 41
 AA 15 D5 CC 88 74 CE 90 FC E9 69 03 08 1C 1C 66
 52 7F 8D 1A 69 F6 43 D2 E7 D9 96 EE 67 4A 8F 4F
 5F 39 10 59 C6 FA 0D 68 94 3D 9F 51 54 F4 B9 E3
 05 95 82 49 C1 8B E3 02 C2 6A 28 48 DF D5 5B D9
 50 FA 6B FF 4A 08 E3 BA 6A 10 EE 97 0B F2 F9 05
 8E D1 6B 41 A2 A9 0A 05 26 4D B9 56 00 6E CA A5
 B1 B2 27 55 66 49 CD 91 AA 3A 39 11 90 70 BE 14
 8E A4 D6 89 8D 6E 41 D4 D0 F0 C6 20 0F CA 7F 0D
 CF C6 BA F6 41 B1 83 2C 7C CC 20 0A F6 A1 DD 5B
 C8 3B 85 0C A6 3C AF 67 8E B8 62 EE 08 2C C9 66
 BE 13 12 75 15 FE F8 20 61 F2 2D E0 17 69 D0 BE
 0F E4 0D C8 2C 9E AD EF BB 6F DF 51 A3 D2 5F F8
 A4 8F A6 6A 94 29 76 D8 DD 99 73 23 06 82 63 1C
 89 23 30 B1 8E 6A 32 3A CD B6 63 E3 4B 99 43 B8
 78 13 9B 26 AA 90 2F 83 3F 57 D5 9A AC 10 10 52
 2C 8B D7 2B B1 51 17 E7 79 80 4B 9C 40 70 0C 61
 E3 85 3B A2 28 E9 FC E2 EC E7 02 F4 AD D1 26 D4
 CE 89 AC F9 89 7D 44 1C CC CA F3 75 55 5F C7 23
 5D B6 D2 A1 3D 1F F0 21 5E 26 11 21 79 A6 15 5B
 29 88 91 D4 D5 6D 4E 4F 4B 71 F2 C8 B3 0F EB F7
 DC CB E5 E9 E2 B1 D3 80 84 49 CC 5D EA 62 71 B2
 21 13 BA 6E 47 73 32 C6 D1 AE 53 A3 F9 70 38 56
 2F 2E F7 C7 A3 69 13 90 27 FA D4 87 EC 63 E8 20
 93 70 3B 6F E8 21 43 E5 E4 DA 87 41 F7 35 46 48
 69 A3 24 72 3F 8B 3B 86 2A 3B D3 B7 72 00 C6 75
 5B 7E 4C 84 F5 B2 C6 5F 44 3E 03 40 08 70 D1 9F
 BC 25 F4 D7 01 FE 9B 23 48 67 34 97 32 7F DA A1
 F9 D3 71 7C 25 7C C4 45 CB EB AB 4A FB E4 83 16
 26 77 7B B9 F8 05 CA C4 F8 D2 E5 98 0D E5 87 BA
 4F C2 58 4B AF 4A 0E A2 FF AA 1F C3 3D 8F 2A 5D
 0A BB 8B 43 07 36 23 90 CD E4 C6 9A 12 8B E2 E1
 75 83 4F 9D B7 D0 03 17 C2 C4 C6 BE 6E 0A 49 E5
 FE 21 FC 97 81 11 CB 83 ED 24 2F AF AF 0D B8 EA
 B0 36 49 AB B0 B0 16 CF D3 FD DC FE 1D 8F 41 D0
 58 40 2B 85 B4 4C E6 7D F2 84 50 5D 58 18 7A 38
 30 D1 03 A3 F9 5D 8D 45 FE 22 4D CE 0F 4D DF CA
 16 3D 15 42 18 93 9D F1 42 79 5E 93 64 A5 44 82
 5F 46 99 29 1A 16 E4 4E FF B9 0F 58 0C 7D E8 94
 14 6E 5B FB 4A 6C 13 45 DE 83 E4 16 8B 24 D9 E6
 10 66 63 9A F6 39 7A EE 51 DC 10 29 4C 1D A4 7D
 17 DA 49 CD 64 B9 8B 65 88 C8 77 8A 57 2A 9C 51
 5E B9 CC A2 6A BD C5 2A 1E B1 C4 CE B4 C1 C2 95
 39 C4 9A EB 53 0D BF 6E DA 08 B0 D5 0F 49 3E 50
 D0 4D 06 B9 B8 6B 0A 4C 6B 5B 91 0B 46 38 C7 C8
 51 D6 59 73 49 80 00 49 97 BB FC DF F4 8A DC 10
 A5 92 69 03 AF 83 75 89 4E BB 41 30 DE F4 DA 79
 7D F2 BE B6 77 09 61 BF 1A 6D 12 02 9E D1 EC C4
 9E 07 2D 5B 5E BB 1F B7 32 55 AB 8D D9 B9 1B CC
 C6 2D 7C C6 0E 4D D5 2F 10 66 F6 41 AC 36 F7 0F
 35 70 F5 4E 52 A3 B4 4D DF F0 D0 25 64 2F C1 49
 2D B8 B9 2E EC 10 4E F7 3D AF C0 D1 AE 09 5B 9F
 BA F7 5B 77 57 B9 58 C5 3F 9A 14 FA A8 46 4F 1C
 FA 46 D7 54 8B 61 65 8F D9 0F 7C 25 4F 97 22 13
 C4 74 2E 29 3D 20 D8 AF B2 00 FE 87 2E 12 72 C8
 69 DA 1C 3C B5 99 99 9C 0A B4 95 DB A3 64 FE A5
 8D 5D AB E8 59 06 FE E9 CB BA 74 31 3F 0B 32 AF
 19 09 8B F1 52 D4 91 73 9F 1E 91 FD 17 80 77 E2
 01 49 53 48 DC 5C AB 7A E8 D6 06 45 57 08 3E 00
 61 AA D8 12 A3 60 24 13 6E 82 0F A1 70 42 BF A5
 03 A0 E6 00 4F 87 04 25 6A F4 D3 47 73 F2 A1 4A
 FB 48 8B F0 67 34 55 E8 27 2F 2E 11 E1 E7 9C 80
 00 F6 B6 78 E6 04 CA 06 17 F9 46 4D 32 5D C2 88
 DB 35 76 9E DF B2 9C F1 34 C2 B3 F8 E0 5E A6 BF
 BC 0B 06 65 6A 32 A4 A0 DA D1 16 FB 53 9A AB B7
 34 C8 51 AA FA 79 DE 29 FF 87 DB 63 33 BB 13 39
 FF 0E 10 B1 18 53 24 04 17 A7 DF 9C 8A 50 7F B8
 D8 CD BC F4 ED 59 81 0A 48 DF F8 50 56 20 79 83
 DF 14 1E 2F 92 51 7D 14 3F 3F 35 30 D5 9A 74 36
 70 74 CB 8D 26 E0 27 1F 8B 64 A9 3B F8 FF 0A F2
 39 E2 E6 8F 2F 8E C9 1A EB 4C C8 61 97 3F D4 C4
 99 20 D4 68 EC 49 EB 81 B7 5D 7E FB D4 1D AA 24
 AB AA 8A DA 6A E6 52 C5 27 DF 00 7C C0 CF 23 F4
 EA EA 14 3E 2D 6C C1 F9 5A 9C F6 80 3C 38 3A 89
 C0 4B BD 5B 51 4B A3 D5 BD 0E 96 28 D5 1D CC 51
 AE 0E F5 DA 16 7D 83 80 CB 33 C0 66 71 76 CC 27
 34 06 B1 04 99 AC 1E B6 8D 7C 60 A7 56 4D 24 4A
 AA F9 89 F5 EE BF D5 EF 06 8F B9 1C BB AE 62 F4
 59 13 C8 C5 DE 4B 96 59 3F C1 2A 19 A9 6F 7A 30
 EE 98 26 C9 47 DD 3F FA E5 5D 05 2D F3 60 7F A0
 38 3D B4 03 3E B6 46 1C EC E4 97 28 3B 3C 1F AF
 3B 0C A9 E4 B5 B5 B4 25 11 70 16 66 D3 BF 56 D9
 04 49 67 82 B9 1A CF 26 79 0F E6 5A A4 B1 AD E1
 15 2D E0 0B 9D 39 1D 28 E3 CC 76 A7 AE B2 EC DD
 8C 7C BF 32 9C 0C 4A 01 A0 96 8E 36 8F 6B 47 3E
 F6 F0 FB 29 1D 8C DB 74 B9 EB 7B 76 5D 24 08 56
 DE 3D 6A A4 5D D0 86 DA 19 41 68 FE E9 16 5F 72
 48 5B 73 1E 00 9C 20 49 43 B8 FD 76 77 EA 92 84
 89 F1 C6 1B 69 B7 89 40 98 A9 41 61 C7 F9 A4 1F
 65 77 EB 85 33 15 8A DF 60 CC 55 ED AC 87 2D 89
 65 1F F8 B5 49 65 EF 56 78 4B 90 75 C8 5C 0B 92
 5D C3 C5 4C 56 BE 9B DE 1C BB 20 4C 35 1F CC D3
 1F 4C 0C B1 59 3D 3C C3 47 A8 74 D9 13 C0 2D E0
 AD 2E 7A 0B 8B 12 5A 78 1B 3C 2D 68 AD CF 78 5B
 9B 73 FE C4 5A 1B 18 10 1B 71 4C 03 E8 1A F7 C0
 04 60 6A 23 67 9A 09 A8 11 68 37 CC 3C DD 97 78
 F5 43 AF 85 D4 81 0D 5A 5B A5 81 25 6D E9 7A 41
 8A F1 C7 60 6B FC C1 36 46 7A 4F 41 E3 C2 E4 E3
 BE 66 6A F4 8C 69 96 CF 87 3C 32 E4 90 A8 1D EB
 4A 1A C9 F0 B8 42 1D E9 02 88 2A 9B EB 03 B6 2E
 F0 F3 16 14 79 7A 8B D8 A6 AA E5 AD 87 70 C8 E6
 90 1B AF A3 2D B5 8C A3 08 DA A7 9A E6 9B 56 A3
 D3 88 5D 48 90 D1 2E 69 0C 2B 13 49 69 A0 4D 01
 8B EF 1F 80 83 56 2C 29 F1 2C 30 E6 42 14 DA 77
 EA D8 F7 8A 59 57 C9 5A 92 8F 55 EB F6 8B 73 B3
 27 FE 10 C8 B4 84 FE 9C C0 16 E2 2F 72 04 99 E1
 1C FE 70 C3 97 F7 E5 F1 C5 AF 08 89 20 F9 67 AA
 E8 28 0C 73 D2 08 EB A6 05 79 85 75 DA 95 81 9E
 F2 B3 64 EB 81 E0 23 0A D3 4E BE 3F B7 D1 3C 92
 70 1D 4F 96 7C 5B 5B 87 6B F0 31 DE AC C1 A7 B2
 DD BE 55 29 A4 7B A1 DE 2B 9A 3F 4A DA C3 EA E3
 BE C0 EA 88 A4 14 26 90 8B 99 34 CE EA FE D6 E3
 38 CE A2 69 0D D9 0C 6E 18 56 D8 CE 93 7C 11 85
 82 74 6D 99 EC B4 A9 57 5F BC 82 2A 63 6C E8 DA
 69 DC A6 00 38 75 13 16 B9 CD 84 9B 20 66 EE 8D
 0D 6B 3E 6F 92 62 B9 EA E2 EF 64 27 B8 47 C8 98
 B0 16 65 B1 00 0B 1E 59 FC 84 52 1D 12 F6 8E 3F
 8A 24 A7 A8 3B 4B 52 A6 C7 57 11 5C F5 4A 31 84
 F7 AB C4 62 09 73 B3 5E 3A 56 65 53 41 5C BF E4
 1E 9A 32 C9 B3 0F FB D5 DD 46 FB 89 05 0C E3 FD
 26 D9 E6 EB 35 75 61 70 E9 5D 59 7F 63 7A FB 61
 41 2C 66 1D 0D CE CE 27 1B 45 7C 27 96 38 2B 2D
 45 D9 54 6E 94 79 C7 BB 09 96 55 71 A4 B8 54 A3
 FF 93 2B 46 B3 2E 9C E7 5A 5F BF C7 43 24 07 FD
 AF 10 90 55 50 14 96 52 C8 D1 19 18 6F 2F CE 56
 7E BD DE B4 BE 48 BD F3 CB 3F CA 5C BD 73 18 74
 50 27 36 4D C1 29 AA 41 69 3B D2 AB 3A 1A 13 0C
 96 16 28 C1 45 81 AB 7E 93 5A 27 D8 FF 5F 46 A5
 C0 0D 4E D4 A8 8B E2 79 17 26 77 18 69 60 CD 34
 6C 6D 19 01 82 2C 32 A7 B2 4E 43 38 E0 64 F1 8A
 E9 5C A2 D9 8F 87 49 E8 80 6A ED FB 13 AB 56 27
 7E B8 F1 75 C2 0F 46 DD F3 0D F4 35 DE EB FF A5
 EC B0 78 49 94 64 E3 93 CB 58 F0 25 A7 0E 2C 0A
 A4 8C B4 F4 AE 77 36 4C 43 A6 08 BA 44 3E 4A 90
 D4 BE 87 2A 00 2C 4A A1 74 55 CA 52 F8 BE FE AE
 12 9D E7 64 96 9C 69 CE 32 83 DD CF DF 13 61 72
 03 F9 F7 F2 A0 F1 DC D4 D2 F5 A1 A8 2A 0A F2 B9
 59 B3 E4 B8 8C 27 89 AF 1B 53 01 23 F0 2B 75 FA
 5F 17 8D 4F 55 1D 9E F7 1C B4 4B 1F 43 82 B1 68
 8A 97 AE B3 AF FF B6 FE 13 E5 48 F3 ED 06 40 66
 AA 83 62 82 97 97 1E CD 38 38 21 C7 E7 1F 51 26
 4D E1 31 73 A0 C7 9B CF 25 F7 F8 5B A2 C9 62 99
 21 56 2B 9B 61 E0 B7 88 64 BE 9C CD 27 14 40 C5
 29 1C B2 C3 69 BB 59 AA 48 65 D5 BF D1 96 20 D4
 E5 34 ED B7 12 E7 AD 22 0D 2E BB E8 E2 44 FE C9
 FC 42 69 F8 5B AF FE 60 68 5D E4 B5 25 0E F5 9F
 19 3D C6 7A 6F 45 8A 9B 64 B6 62 DD D8 65 59 33
 11 46 55 E8 47 2D 5A A9 C2 43 B6 F1 BB 46 2C B9
 03 2E 51 7D 90 3C B7 A3 B7 4F BA 1C 49 57 CC 21
 77 EB D4 B1 61 E5 E4 F0 B2 BD 47 95 A1 DD 29 86
 38 8C 1D 2E E9 B4 D0 BB AB 70 E3 B2 31 88 77 2F
 A5 BB 69 F4 FB 66 68 1F C9 5E D7 37 CD 01 A8 D1
 81 A5 52 DE F4 F2 72 44 FD B9 72 A1 EE 74 73 26
 B6 99 70 B4 B5 36 B1 E1 D5 F9 A7 A9 3D 75 9D 6B
 54 D8 3B 74 64 0E 6D 75 EE F8 4D 98 36 1C B8 DB
 85 2B C9 FC E2 C6 A9 A8 39 F2 8C C2 0A 42 C6 D2
 56 5B E1 B4 8F 03 5E 16 0D 4F E8 AD D9 9D 38 00
 D9 C4 AA 8B 80 DE 14 44 11 9D 86 B8 72 AE 93 B5
 B8 07 8E 26 82 8E E0 63 9F B1 E7 A8 E5 73 DD E3
 7A 66 19 3A 6E 64 BF 5A 9A 8B F6 03 3A 76 83 42
 D8 E6 F1 FD 82 51 7E AA 38 EA 87 9B 37 5D 58 51
 C3 45 29 87 4D 42 9F 72 7A 6F 61 B5 A6 61 88 7D
 BA 22 05 9F 55 69 88 9C C7 EA 5A F2 3A 59 1C BA
 AC 55 87 0C C3 A9 2C 1C 34 34 08 32 F8 71 CD 14
 33 51 3A EA AB EA C3 F3 40 FC C7 40 55 F6 3C CC
 2E DC 53 F1 AC 7D B6 1F AD 1F BF AC 31 FD 2E 22
 61 0B 1F F7 36 CB CB A5 40 03 AE A0 A6 E7 18 1B
 EB FA 8B 56 AB 60 DC 2B 87 B4 C5 99 E7 43 F4 1C
 78 D6 07 A2 48 E5 42 81 38 F2 2E 45 9E 5B 23 76
 D8 FB D3 7F E0 03 FC 06 5B 05 AD D4 10 77 54 79
 2D EA 3A 2B B0 5E 64 BD 78 AA 6C FF B9 3E 19 2E
 2B 7A 38 7C 70 3A 9E 99 71 F5 D1 2D 3A 4F 0A 1B
 21 EE 0C 8D 9A 4B 7A 31 53 83 1A 8A EB A1 79 5A
 B6 7F C5 25 01 B3 C9 A2 EE AB 46 58 B2 50 28 83
 FD 16 D9 D7 04 3E 3C 74 58 46 92 DB FF E5 49 F5
 C8 A7 F5 18 41 BC A0 E9 B2 3B 19 0A 52 29 03 FB
 9A 21 55 F9 0C B1 CE 46 C3 23 9E 7A C4 92 7E D2
 AF 16 DA 36 82 1A D5 B9 B9 0C 72 E4 15 DA 8D 2D
 DA F0 42 79 D5 37 CF 0E AA 37 BC 49 29 96 0E 86
 B1 CC C0 50 4E 49 50 86 23 51 97 D3 95 54 15 AB
 AA C9 C6 1F D9 EA EF EB 0C 27 C2 8F 57 C6 E3 17
 02 A2 DE 6F E0 50 35 89 CC 13 73 45 DC F5 BC 23
 09 6F D0 8B 46 E5 02 24 F5 4F 65 88 B1 F4 77 4A
 C5 D3 72 39 A7 D9 ED 3E 2D 25 98 81 42 C8 D9 7E
 5C 1B 3E 68 D8 0E 9E C6 EC 3F C9 BA 52 D6 09 6A
 EE 22 38 C5 CF 72 CB 7F F2 44 F4 7B 91 C2 82 09
 53 1B 5B 2B 8D 05 0F 3E 79 7B 3B E1 7A 20 98 16
 15 9D 38 8A 76 E6 79 E8 C7 0B 3F 43 7C 6F 6C DF
 4E 7D 42 04 39 F5 E9 B2 BB E7 1C 3A 34 31 39 9B
 BD 02 F7 91 7B 40 62 34 3E 4D 1F 13 80 2B C6 CA
 D0 3B 53 FD 7E 1D 0E DC DF 31 36 45 E7 C5 AF 5D
 31 BF AF 7E 46 EC 2F A6 A0 83 55 D0 22 CB DB 44
 32 BD C7 2A 05 88 6C D3 7D A6 8E 76 4D 75 F1 2A
 47 5E D2 24 DA B1 E9 F8 5F 82 A6 44 98 22 CA AF
 13 EF 8E 95 D1 C2 35 75 19 72 7F 19 F0 00 46 4C
 56 58 DC 54 29 D2 0D 15 E7 8F F4 56 0A 2C 87 D4
 70 E0 3D 21 FE CC C8 C3 0E 85 FA B9 88 69 8C 7E
 76 1E 90 CA 0B 5D E4 52 4F 19 E4 39 F9 39 7A 2A
 65 3F B7 C5 0C F7 45 62 56 C0 0E 51 E9 89 9F 28
 55 F7 5E 55 E6 CF 43 6C 00 AC 02 12 83 01 A8 51
 13 74 1C 92 82 B8 05 DF 15 B8 BE CF 07 A5 05 60
 94 FC AA 41 E5 B1 2A 16 F5 49 ED FD 1C B6 C3 7D
 DA 65 27 51 E9 68 58 6D F8 BE 87 D6 7F 5F 9C CF
 A5 2B 42 1F 8B 41 03 26 84 EA 57 14 02 94 18 BC
 2D EA DC FA 31 EF FC DA 76 A5 E4 0B 44 76 F1 8B
 6C E6 CC 0C 4C F7 33 47 40 EF EE 06 FF C1 BB DB
 A8 A4 15 1A 2B 96 D4 87 D9 A2 6A 4C D0 13 57 B4
 AB 43 1B E2 22 14 72 32 75 9E 3E 5C 3D E9 C4 2B
 73 CC DC 7B 38 8F 72 4D C2 DB 91 2A 93 4F 73 DE
 7D DD 14 02 F3 51 FE 40 8A 7D 14 0D 5B A0 39 E7
 FD 27 0C 14 01 A9 E5 D1 E0 8A B3 FE 37 4D 4A 33
 BA B6 C5 0F FB 12 DC 7A 12 E4 C5 5B BA 9D 8A 43
 CD 05 75 82 C4 30 86 F4 13 E5 64 9E 84 34 EC 9B
 45 32 F0 14 AA 44 19 8C 4F 09 4E 83 4C C5 8E 4D
 15 B4 07 F8 9F C0 B0 6F 40 21 0C 17 4C 06 D1 E7
 3E 41 1E E5 49 33 62 A3 BB 41 72 2A EE 11 90 E9
 27 E2 FD C0 D2 97 B1 5B 07 A4 39 B2 4D 5F 3B 9E
 C3 A2 87 36 13 1A 21 25 FC 6C D8 05 A4 57 84 50
 9C B8 F7 63 A9 CB BE D8 BF 51 9E 2A 0A 0F 36 22
 3A D6 33 A9 04 EB ED 6D 60 3E 92 F8 45 0F 54 7F
 D9 61 3A 2D 19 25 48 50 4D BD 23 AF ED F4 AC E3
 21 4A A7 16 14 8C DB 7D 87 D0 89 58 4C B4 AF 48
 5A 11 AA 23 23 21 50 20 18 B1 2F 7A 51 2C 42 C9
 13 48 21 15 E6 16 34 78 A8 2F D3 16 69 91 9E C4
 E3 29 55 D9 24 A2 D1 AD D1 27 63 B9 73 EE 00 C3
 4E EE 01 14 62 16 A4 3C 50 22 BB 01 D2 1D 45 B6
 D2 8E B7 86 19 48 8E 71 C0 42 E7 92 F8 AE E7 63
 79 A6 22 7E 50 F4 3A 50 72 7D 30 70 6C 1D 15 FE
 26 85 AE C7 97 D7 E3 94 AF 17 0E 3A 9E 9F 89 C2
 95 2D 90 46 7B 6B 3B 3A BB B4 99 47 FC B9 ED A3
 34 E5 36 4C 5A 5E 95 4E 2D 97 B4 AC BF FB A6 B8
 A5 E9 F0 93 67 8A 4F 21 4F 3A 74 84 30 37 41 6F
 D1 D0 CB 46 9F D4 8B 45 A9 C5 A5 B1 07 24 0D FC
 63 4A CA 04 18 B1 1A 40 B8 5E DE 45 C7 C0 16 C9
 99 69 10 81 1F D6 B6 3E 82 5E 44 B8 A2 B1 42 F7
 35 97 DE 10 5E 18 B7 1D BA 14 E0 78 C5 C8 BD D3
 9F EA 7C C8 9D 35 5B 58 FC 6D 9C 52 0D 49 51 03
 6D 07 D0 EB E6 8B B1 1D 89 12 02 50 27 1F 62 F5
 9B 99 48 F0 5F D6 03 28 AA EB 5D 1D 5C 48 F3 A4
 C8 68 C7 8C 8D 77 85 60 85 17 2C C2 FD C9 E9 49
 B9 C6 43 BB 1B 7A 65 97 50 FB 84 AC 96 AF 6E 46
 24 4A A8 77 70 B1 4C 20 EB 94 D6 6C 1B 16 FB FC
 C8 4F 83 63 08 97 D9 B8 A2 40 70 7C B7 0A 2F FD
 D3 69 0B F1 9B 0D 16 E0 A7 7B 23 4F 2C 14 93 80
 F5 19 A8 52 16 A2 FF FA 9E D1 D0 B6 AE 2D D9 04
 08 13 37 E3 17 98 79 F7 05 DE 2E 6D 9A B1 57 7A
 8D 5A A7 6B 2F BB A8 97 DF 76 FC 82 D6 0F 2F C0
 7D 2D 18 CD 51 14 47 97 BC CA 99 FB E2 BB 0D B2
 77 02 AD 26 2A 2F F8 82 28 60 BD 08 92 AF FF 33
 5B 6E 50 D8 21 D3 82 2C 18 79 09 9D B5 1A 7A BB
 00 7A F2 19 F5 FD 3B D2 A7 D6 06 1D 6D F9 E8 E0
 E3 19 96 BA FB CF 18 F7 4C DA AC CB 31 89 7B 3C
 70 40 1F 29 0C BD 4B 28 9F C9 8E 5C 95 45 1B 30
 87 67 B7 5A E2 15 C7 65 3A 97 94 54 85 D3 A3 5C
 88 F2 BF 7B F5 AA 7E 28 E0 C1 E1 48 EB 8C 5B D1
 50 8E 3C 46 1F 05 68 A4 21 AF DE 44 E5 7B F8 5C
 A3 1D BD A2 86 F1 2C B2 17 F6 BB 6C 85 40 C2 83
 93 7A FA 75 AF 26 5A 73 8F 6E 65 91 57 30 58 D4
 62 4B 5D 7F B0 32 21 5A F5 7E 5A 64 F7 89 83 86
 75 4D EE E3 B0 2A AB A9 C5 E4 CE 1E 9E 55 1C 17
 75 4F A6 3A C2 34 5C D0 84 36 A8 42 72 60 23 53
 66 00 6A 91 E4 15 15 E2 AB D2 9F 77 59 AB 96 7D
 5D 32 82 92 9A 2A 85 C2 4C 0B 1A 22 F8 21 2A 3D
 78 3B F7 EF 85 12 DD 2F 6D 00 D9 6C 64 8A 5C 03
 66 DD F5 A7 29 2F 9E BD DE EB D6 6D 77 7C 21 77
 AC 8E 3B 83 4B 2D E7 F8 29 63 19 9E D5 0F C5 7A
 0F FB 98 CD 0E C8 03 82 EA 64 D3 A0 43 04 30 C0
 72 27 DF 57 24 06 D3 9E AF 5E 04 F2 8C 7C 8E 9C
 55 4F 2D 4A 86 3C 96 2E 63 A4 77 5F 32 6E 12 AE
 17 55 BD 59 8E B7 4E 53 39 71 F8 D5 B3 6B 03 5C
 EE 8D D6 20 90 7E AA 2F 2B 23 46 9F D5 34 F9 C9
 0F B3 64 AC 1F 4A B4 D8 9C 4F BA B5 B2 D5 A7 0A
 70 0B 7E 16 50 21 BE 4F 5F 37 58 36 47 56 5A D2
 F7 59 ED F0 F7 B3 BB 7C 3A BC 06 F5 0D 17 1B 00
 3D 75 13 B1 1D 81 5D 6D 34 0E B1 74 88 C7 22 39
 8C 83 F6 30 FD E3 F9 BD F9 42 61 E6 BC 50 08 AC
 3D 2B 4F F0 6C 85 05 A5 20 17 B3 CA 98 9D C9 A1
 8A 30 2B 9C F0 E9 3F 62 F2 62 A7 01 70 EC 71 54
 3C 1F 7C 33 B3 FE 8B 59 8B 85 32 A2 59 80 F0 B6
 2F 42 F2 BD D1 5A B8 2C E4 05 AE 89 97 14 2C 45
 69 0C 56 18 A8 64 53 13 FC 37 EA C4 53 22 17 5E
 38 7A 8A D0 DA F7 76 43 D0 8E A1 9C EB B7 42 28
 94 B0 3A 42 23 9A 2B F7 EE 6E 05 0E 5D E9 29 62
 02 49 48 12 F5 59 F7 BB 51 69 CA 66 C6 E4 11 02
 80 7C 18 68 99 80 A9 F2 FB C6 A6 08 06 09 53 FA
 DC F1 26 F7 A3 84 AD B5 DC A0 4C D8 79 92 9D 99
 66 C5 FF 61 BC B3 BE 6A 69 80 51 6E 25 1B 62 6E
 BA 11 F8 AD 04 A5 FE AC 53 EC 8E 3F E3 49 66 45
 F9 4E FA A3 08 A7 27 3D 25 50 90 9D 12 8E 94 E8
 59 D8 22 B8 12 3A AF 03 71 87 9A AA 18 8E B1 BD
 92 5C 59 DA 4A 49 A8 67 9D 2B 76 70 08 07 D3 DF
 55 BE 0E 54 50 6C DE 0B 53 97 CA 81 CD 84 56 97
 C5 00 B1 99 3F 1A D4 4F 66 BB 5D C6 53 24 63 F9
 2E 87 EE 1B 6B D6 19 93 A1 1D 35 AD 36 8C 38 32
 3C 63 C1 29 52 95 E6 8D 49 52 1F BA 04 80 9B 70
 1B 0A 02 BB D7 09 DC 29 B7 B6 48 EE CB F5 D4 C4
 38 31 1C 7A 16 F9 B1 13 3F 3B EC 1A B6 D7 F3 AD
 4A 01 5A 86 72 D8 DF 7C 74 60 0F 81 C6 E4 83 9E
 CD F0 41 56 3F AF F3 51 47 4E 26 D2 1C 2B A8 AD
 41 33 5F 87 09 55 B8 EF C2 72 02 2C 28 F5 B8 31
 77 4F B5 CF D1 D7 51 63 A8 F6 03 93 E9 C9 94 31
 CD 36 4E 88 D3 5D 71 BE 1D 26 BD 66 92 66 F4 9A
 79 5D EA 20 35 69 BC 28 3B 0B 2F 84 51 4E 36 80
 70 47 EC 55 37 C0 D3 6B 65 D3 C5 56 6B E3 45 14
 C6 36 DF 57 56 85 70 43 69 CA B0 7B D6 AA 79 C7
 2B 9A B0 1F AF 90 7A D4 0B A3 E1 B5 B7 C0 49 93
 D2 3E E7 44 56 B5 C5 46 5C D2 DB 0A 3C EC 79 3A
 0F 0D 07 17 51 EB 51 63 A4 78 8B B5 3B 7C 40 7A
 A6 8A 5F 50 03 40 72 47 EB 51 D8 AF DB 8A 78 F6
 51 4E F6 76 D8 D4 19 72 70 BF B4 29 1E 81 C6 5E
 3F E6 6C 93 43 F0 23 9D 4F 35 63 AE AF 1F B1 7A
 8F 9F E2 7E 5C EA D0 C4 F1 D0 B0 8D C2 B1 74 D6
 8E 91 0F 57 1E 6C AB 1D AE 36 DC C2 CE C2 00 B2
 DB 15 7A 29 C8 85 E2 13 7D 4F 0E 9F CE 7A 80 3E
 EA C7 23 AB BA AC 24 D2 D8 DA 59 1B 18 97 1B 19
 A4 E4 A8 F9 F9 91 AA A9 E0 9C 94 5B DC 4F 32 C3
 DC 6E AC 59 56 24 FF 42 7A FB 0C FC 10 FA 09 D2
 79 CE 79 AF 0D 81 FC 10 46 25 3E 75 79 5D DF 87
 78 4A CB 7E C4 00 6E DE 23 DC B2 DD C5 27 6A EE
 81 C0 B0 C2 72 DC 01 7C 39 DD 20 4C 44 38 A2 4B
 98 B4 B7 DF 58 63 75 53 E5 2F A4 24 29 F1 8C 7F
 BD 74 03 16 8F 8E 93 F0 88 3C FA BB 3A 00 F9 69
 53 0A 8D 70 42 61 3F 8A 04 A9 40 0D 6D 67 FD D4
 4D 5C 3C 4C 6D EE 6E 5C ED 2F 79 1F B5 45 FA 57
 A4 0A 7F 96 58 42 24 90 7C F1 E1 8A 79 22 3C 8E
 ED 05 B7 B7 B4 73 48 E9 B9 FE 74 E1 88 80 0B 8F
 16 4D EE 89 B0 24 4D 1F 96 05 CC 5E F7 DE E4 FF
 1F CC 8B BA 7C E1 51 25 F8 CE 7C 7F A0 A2 8F FE
 F1 B7 47 24 DF 3F AE 70 3A EF 09 E5 F3 DC 28 86
 17 A8 07 DD 10 22 BD DB 61 D5 6B B8 57 54 E6 C6
 4B 10 7E D2 64 61 0F D3 C5 31 DD 24 CE CC 4B EC
 B3 8D C8 C2 03 88 78 2A D9 BC F8 89 D0 4C 27 F2
 9F 42 B9 88 80 40 22 B8 D6 1E 5A 4B D6 6E C7 99
 3E 62 71 84 A6 4C 88 F6 6B FD 5D 59 B2 C3 90 BF
 2F 59 D5 DB C6 15 29 38 35 65 FE CC 4E 78 FD FB
 60 77 46 BA 24 45 27 CB 18 09 D5 0D 36 58 5E 36
 12 88 8E 88 DF F6 2B FC D4 4D 8E 8B 3F 80 51 B7
 2F 19 D0 88 51 98 02 F8 12 6E 7B 5B 8C D8 98 C3
 30 8D 5B ED 18 8B 85 2B 62 39 73 3D 35 FA 14 72
 C1 C2 19 3E 19 00 D4 4E EC 3F 56 43 5C F6 0B 34
 06 6E E2 0E 00 6A BF F0 BD A5 6B D7 14 DD 1A EB
 B5 CA A8 09 92 8A 78 7E B0 2E BF 42 9E C4 55 7C
 15 83 2A C2 B4 29 D9 1D DF 2E D4 9C 06 46 01 76
 2C 92 EF B5 DE 74 F6 48 55 65 73 39 90 A2 98 F0
 4E 2D 54 8B 74 43 63 43 C3 7A 91 46 D9 C1 D1 87
 C8 7E 77 CE 6C 77 32 32 B4 FF 66 29 4C 3F 3A 0E
 DE D8 BD 2D 7E 05 11 E6 0D BE 0E 98 C9 B9 33 54
 14 E3 F9 FC 43 CB 2A C5 F9 2F CF 12 0B 6B 07 2A
 59 CC 98 89 A7 58 60 7F 12 26 A5 97 35 A4 B3 B0
 F3 48 50 26 53 B1 5C 74 DB 4E 65 45 ED 59 6E AF
 0C 7F 08 B0 58 6A B1 AD 8C B0 74 FA 7E 49 53 D5
* End 2203611095 338445672