* LTspice Encrypted File
* 
* This encrypted file has been supplied by a 3rd
* party vendor that does not wish to publicize
* the technology used to implement this library.
* 
* Permission is granted to use this file for
* simulations but not to reverse engineer its
* contents.
* 
* Begin:
 9F 99 8A 83 89 E4 BA 25 AA 7E 36 08 CD 98 AD C6
 3B DC 89 3D 0E EF 0D 08 5C 2D A9 45 5C B7 A8 7F
 55 C9 0F B7 ED C2 13 FE EB 45 19 CB 23 B5 DE C5
 26 C9 7B C7 72 72 16 15 DB BA CC DA 09 35 64 0C
 34 31 0D AD EC 1B 29 D0 28 28 03 15 98 60 C1 B1
 15 D2 73 42 64 37 95 67 D2 39 11 D9 9D 37 06 28
 75 90 EB FB 01 AA 21 A2 5F FA D3 83 AF 6C FD C4
 C7 04 C1 9C 9E DA 8B C8 9E 88 65 E4 D3 62 C8 64
 9C C6 74 67 24 17 F9 13 3B 05 2C F5 17 13 36 72
 BC 97 97 70 40 03 24 86 67 12 87 1E AE 62 B0 6B
 11 CC 37 5D 5D D3 64 ED 9A 60 C3 9C 18 93 BF 9A
 4E 09 97 96 9F EC 69 55 8E 58 F5 07 A3 CF CE B8
 36 5A 47 1B 61 C7 FF CB 5F ED 98 62 FC EA 8F 61
 8D 79 CA 47 A4 B5 2F 93 E9 3A 57 AF B7 01 7A 06
 0D AA 9F 11 1F 42 59 D5 54 19 59 62 E3 A0 A9 88
 E8 80 EE 8B 02 40 1B 57 82 4D 70 EE 39 C4 E2 68
 97 96 7D 30 B3 74 FC 4C A8 85 E8 D5 59 56 B1 BB
 ED 1C 29 9F CE 1E A1 25 E1 E0 6A BE 4E 18 F9 86
 AB 7F 87 F6 13 BD 67 D1 44 26 38 53 3C 8D 69 10
 F2 52 14 CB 3E 8D 96 69 11 7C 42 AA 68 4B 31 D0
 1C 9B 1B DF 5F 8B 53 F9 24 8F 29 79 97 E7 AD E9
 56 B4 54 91 02 C3 BF 64 A1 ED 37 EF EE 13 CD 7B
 5A 28 5C 4B 74 87 0E 6B 2D FA EA F8 0A 7A 28 A8
 6E 22 04 AA CD 0A 73 B0 C0 C9 AA 58 F0 25 C3 EF
 2E DC 44 85 52 AD 10 7F F6 93 32 BE 30 2D 5A 9D
 A7 71 91 13 0A 3B 55 FC 02 DB 17 7F D8 26 24 33
 55 FE FE BE DC 63 4B 51 DF F0 57 A9 4C BC 6B D3
 17 E5 1B 12 BF 15 FC 71 96 40 4B BB 4F E7 DD 91
 15 4A 7E E4 26 59 E1 D3 DD B9 F8 0D 10 8F 3A 52
 61 C9 25 35 E6 82 A9 35 EA D4 65 AB 92 A3 20 23
 B1 F1 5A 77 D5 FA BE 85 FF DC 40 4F A2 49 E2 E5
 6E B4 D0 AE E0 B0 6B 85 F9 85 DC BE 05 9A 58 BA
 88 B1 69 25 8E B2 0D 32 69 6F B7 16 C4 49 00 E0
 D1 6B 32 9C 69 68 00 18 A0 1B C8 06 97 E7 EA C8
 6F 7E 6A B6 A1 53 20 B9 B9 C9 94 28 AB 25 A9 E6
 91 4F 62 30 EC 3E 22 FC AE F2 EF 90 67 D6 96 40
 D0 AE 56 F6 D6 77 26 C2 4A FD B6 11 A7 11 37 B3
 8F 09 B6 E8 79 BC 79 4D E2 7C 15 A6 AB 17 F1 08
 99 86 B7 B7 9F B9 A2 85 9A D6 1C EC E4 A9 C4 73
 24 11 6B 0F A5 17 1E 8F 49 4F DD 63 C3 35 57 19
 91 7C 66 EA E4 E4 9D 34 95 71 AB D9 3F 53 4B 82
 F9 C2 63 FD 0E 46 73 5E 92 60 D1 8F 17 9A 59 2C
 97 AB 21 46 6E D1 B8 18 9B 9A 6E B4 BA EC DD 57
 A5 BA 2C BA D5 38 94 DE B3 E6 F1 63 2B 67 8E B8
 31 A0 E2 4E 1E 0B 88 D2 6B 46 06 59 F0 5E 25 A9
 D4 9E 99 C9 C7 7F E0 CD 18 A5 49 C2 89 BF 8D 26
 9B F0 D1 95 B0 33 EE 9C E7 6F 9B A9 3C BC 83 20
 67 D4 8C EF 75 B8 38 33 E5 EA E4 43 C9 51 7F 5E
 23 BA 3B 64 06 B7 BE 40 F1 1B 52 ED E5 9A 36 10
 AA 9E 75 66 20 69 19 F6 94 8E 24 18 33 1B 04 30
 69 B8 D3 92 DD 70 0E 19 D3 74 38 46 CD DE A2 3E
 43 85 95 CD C7 29 0D 25 57 82 B9 D8 4B 39 A8 85
 21 35 E7 93 31 12 80 E6 59 E6 A6 23 7E 63 B6 42
 23 B8 DE FD A8 DA 9D D5 04 23 72 AE AB 7D 4D 53
 07 C6 71 A6 99 20 66 9F 18 21 99 5F 2D 0D 5E DF
 A5 FE AE 1A 24 D9 76 43 CC EF 16 34 80 0F F3 A7
 20 30 89 BE 3E 27 A7 DB 8D EF C0 33 B2 90 AF 98
 AE E2 6A C6 D8 CD 83 43 AC 09 EB 46 D7 BB 3B 24
 A6 FB 94 87 CA BD 33 EE 9E C4 55 FF 0A 53 1D 52
 BE 7F 7B 88 54 13 95 C8 3E 25 7E F4 6F 81 E7 B5
 22 28 BE EC E6 A5 E7 30 FE 1F FC 1D A8 BE DD 12
 12 5C EF FC A4 9C 01 9F F3 10 E5 4F 43 ED D1 38
 B2 14 8D 6C 18 B1 F7 27 A1 71 9A EC 63 43 8F 97
 A1 B6 7F 66 A4 A0 A7 2B 38 91 28 FB 79 8B CB 67
 CB 0E 30 16 45 7B 1F F8 9E D9 7E 46 3B 99 6B 75
 F5 1B 90 77 27 C7 B3 8D 01 A6 14 72 B5 AB 10 73
 15 41 26 7C B5 D2 5E 5A 29 C7 FF F4 A5 50 C9 04
 F3 7F C2 A3 C9 9C 2B 0B 44 BA 8E 72 83 9A 9A C0
 22 37 84 A4 83 8A 48 F9 66 41 43 84 D7 78 52 CE
 C1 25 40 E6 C1 9F 9D 79 E8 27 0F 8E A0 82 A3 4F
 11 2F 53 71 BD F1 B2 62 1D 2F 05 98 B8 1F 58 0E
 6B E4 8D 25 CC 63 95 6F F0 32 B4 F9 5E 6A 57 9E
 C1 64 A3 4C C0 CE BE 4F 5C B5 63 8D 8E 64 FB E1
 65 D6 AF 03 7A FF 0D 04 8F A0 22 79 9D 4F 03 0E
 44 63 EF 92 E0 98 B4 06 6D 5F 4F 94 0F 9E 32 DE
 71 C4 10 9D 0A 9F B2 18 7B 43 EE 85 FB 3E B7 0F
 EE 0D 20 02 27 0D CB AF A0 11 0D 0A CD 63 89 3C
 B8 87 A7 50 EA 1F C7 C1 5C CD 79 32 FB F4 57 3D
 9D AB 91 BB D6 8C 90 47 3D 31 66 BF 0F F3 2B 9A
 AE 12 87 4F 5F 0E 6C B2 2C B0 5D 32 42 0F BA DA
 EE 35 A3 D5 F9 E3 AF 99 13 26 FE 9E EB B5 63 DF
 0C 6E D2 7D 6E 5A FD EE 25 33 63 54 43 96 A3 1D
 BB 7D F2 BF 1C 25 6F 2C DA 98 17 75 E5 3C F7 C5
 A4 2F E3 35 FE 32 6E A4 80 87 00 82 1F 26 32 98
 E6 01 44 A5 46 03 94 B9 6D AD 39 66 3A C7 43 90
 52 19 DD 57 7F 23 1B 4F 11 A8 F7 FD C2 E1 EA C7
 CB B1 73 D5 DA 6E 98 E5 F9 B6 75 48 43 61 63 00
 01 DA 3A CC 1C B2 06 7F 6A CE 21 26 17 BB DF 02
 90 C0 93 BF E8 EB 5C A8 08 00 73 10 00 B3 17 1D
 9A C5 C2 37 83 2F 19 59 68 D2 F7 33 D7 68 F4 0C
 B2 B6 F6 13 7E BF 00 26 47 B4 7F 45 9F 5D BA 49
 E6 A1 6D 06 A2 7E 52 C7 8F E6 C9 81 30 F3 14 AF
 A2 9F 89 3F EB CC C6 05 C6 D6 6D 99 42 9B A7 5F
 5D C3 26 E6 2A 1C 44 D6 3A F2 04 82 E6 3A 44 07
 11 8D FB 59 46 CF B5 14 70 CE 54 1A AB 4A 32 64
 20 72 77 29 ED 4E FE BE 6F 42 0C 7D F0 5E FD C1
 B2 49 66 BE 8A E6 7B D7 CD 7A 96 AE B5 2C 4C E7
 EF E8 3F 7B 88 B3 5E C5 7E 36 62 85 D9 48 F2 EB
 07 ED 71 C3 04 B2 94 A7 18 AB D7 93 E9 37 72 29
 1D B2 28 50 AD 01 B1 A1 F4 4D 03 99 77 BC DA 33
 D0 AC BF 1C C5 40 87 A3 5F 0A 27 54 A6 6E 34 D1
 B1 2F 21 C4 12 40 C1 E6 7F B1 D2 6F 02 ED 04 98
 BB 44 8C A9 C3 B5 5B 38 86 97 07 69 77 3C 6F 8F
 3B 1A 63 C9 8A 26 BD 88 F2 A9 BF 66 DE C6 10 01
 EE 45 46 6D 70 4D 21 F5 1A 3B 8C E7 35 89 81 28
 61 33 7F 6C 37 F4 80 1D D1 E8 FD 55 33 10 BE F2
 6D FC 49 E4 93 7D A2 62 77 16 C4 DC 05 D2 61 AA
 F3 E9 C7 C4 04 E6 5F 6B D0 44 64 6B 7A E5 C6 53
 8B 15 7F 5B 65 D0 CD 5C 1A AE 7D FF 01 1A F2 CF
 AA CB 2A 22 C2 B2 0B 7B 1A 21 F4 A2 26 1D 04 82
 26 D2 5B 0D 1E 08 9E BF 65 BA 67 CB 2D 43 2E 82
 62 3E 94 91 56 74 67 F1 8E 8E E9 D4 DD CB 05 0D
 5F 77 BD F3 F8 B2 FB 12 BE 68 B3 BE EE 89 75 53
 8D 97 E9 F1 0C 7A 49 13 C0 82 69 7D 4C BD E7 A4
 08 A3 73 49 2E 53 9D B2 E5 4D AF 3A B0 B2 3B 57
 24 93 A4 76 7B F6 86 0B 8E 20 1C 92 A6 3E 39 0B
 95 69 36 CB 75 1D C8 1F C6 E6 2F 0B 08 3C BB 06
 1D BC 74 EF EA 4B 48 49 39 58 1F 27 00 A6 08 92
 93 DA 21 C1 09 E0 32 44 DF 62 89 CB DB 8A C8 BC
 E2 52 8A F8 FA 4B 6C 38 69 E4 89 1D DE 72 1F E0
 89 C1 99 1C 51 98 56 16 F9 BD 6C 55 93 32 0B D3
 26 2A B6 DA 4B 44 44 69 F8 DB 98 64 B7 E7 3D BC
 1E 15 91 3F 61 26 55 A1 83 05 5C 43 19 C7 BE 6A
 32 87 E2 75 5E C2 36 78 25 F3 33 92 18 96 5A BC
 7F EC 3F 72 E3 E6 0C 73 9E 84 52 05 99 09 5D 5E
 2A B6 80 65 93 BB 1F B0 D3 88 9F 84 2B A5 3F 0B
 B3 70 34 E9 B5 68 16 69 C9 6F 06 13 3F C2 FF E5
 52 68 29 2B 63 84 F3 A9 51 28 05 97 85 26 07 83
 08 CA 52 DC B1 56 C7 4A 5F 4E 26 EC 9A E2 47 2A
 49 D8 8A DA 09 D9 47 84 B5 C2 2D B2 7C AF 91 F6
 B6 87 B1 F1 68 A7 52 F2 75 2A F1 51 3A 7D D8 7F
 D2 5B 26 6A E7 49 8E 89 CE 79 FA 9D FB 4C F0 BF
 5C CF BA 64 82 F5 04 2D 78 9F C0 B7 5D B9 86 20
 0D C5 C5 D7 16 83 9D 23 BC A0 62 F9 B6 E8 0B D3
 9D 29 48 85 12 D2 7C C6 84 5C CE 5E 27 71 FE CD
 02 9C 12 7A F9 F7 BF 07 18 03 E4 F0 E2 49 B8 8D
 F9 6A 6F 4F FC 19 52 46 E9 7F 50 80 B0 C9 D7 35
 50 E3 41 F5 F2 3A 5E 6A 52 D7 38 F4 77 7D E3 86
 4B 77 49 AC 29 95 FC F5 51 26 7E 40 81 61 90 1A
 CF F8 67 00 66 E3 02 46 2F 14 7C 83 EE 70 FF 21
 14 63 C7 FE 47 76 49 C4 74 AE 5E 85 2B 05 88 49
 C5 06 6C 0C AA 60 BC A2 DB 9B 69 D3 65 03 1C B1
 04 C4 A9 CF F5 3E 00 77 31 90 E7 B7 B9 8C 00 AE
 F4 36 01 D6 79 69 3B B3 46 C0 B7 88 66 92 57 95
 71 D2 76 ED F4 34 CD 34 B1 31 A0 47 A0 FA 8E E1
 06 10 FD D2 08 12 55 34 A5 6F 13 3C 5F 22 9F 5B
 34 EE 82 2D 27 A5 63 70 B9 C8 C7 DB BC E5 28 E5
 D9 48 FC 0F 23 8F 5C 0F 95 2B 02 36 67 43 B4 F0
 55 D1 CA AD E1 F6 59 07 44 50 9D 10 66 AD 51 99
 63 EB 85 04 78 79 B5 D0 85 08 2F 28 0B 8C 94 5B
 07 84 76 E3 2F 8A F0 71 D1 1B DB 5B 5F AC BE F9
 CE F0 50 4B E0 5A C6 BF 87 46 FF A6 78 20 C5 94
 0F 6E 0B 06 84 F0 3A 72 E3 90 91 AD 8E 12 48 63
 4C ED 25 EC EA 59 0F 33 59 5D 43 DA 6B B5 03 3C
 C2 5C 37 43 3A 14 D6 1E 36 65 68 DF 36 A7 B2 A1
 55 9B 48 0B FA 6D 54 D8 A2 C0 75 5D 21 9D 51 20
 8A 8D ED 85 61 89 65 4C 28 06 28 A2 10 A0 95 C5
 24 C2 2D 2B 32 2B 9F 99 99 CA FE 88 47 E7 9B 2F
 B7 2B 31 7F D8 E1 5C 68 56 9D 6F DD 7B 7F 6B 3E
 B8 ED 30 AB 95 CE 5F A2 24 A5 82 8E 04 1E 0F BD
 37 18 6D B5 8B B5 2C 4E D0 BC A7 40 E4 D5 5E AB
 5C A8 37 4D D5 EE 5B 3C C1 9D 76 FA A7 65 30 57
 AF 21 29 1A 90 55 AC 0F A7 94 01 B2 F1 2E 26 AC
 94 56 ED E7 34 D7 E3 9D 5D FE 6B 2F 5F 11 97 93
 4F DC 07 91 F6 EB 1F 1A F2 7B F5 97 AE 97 67 62
 BB FF DC F4 32 A9 89 F3 BE D4 87 8D 8F 47 D1 CE
 BA C7 5C 37 8E 4E 57 AB 06 C5 14 27 EF 3A 15 6A
 17 47 E2 CA F1 C0 51 0C C5 86 9C A9 29 17 FC 58
 CD 74 8B BF C8 28 6F 12 08 63 42 E0 23 4D FF 49
 82 76 38 61 D5 60 02 92 D8 AF B0 4F 96 4A 26 F7
 79 9B 48 9D B0 66 6B 66 B1 C2 4C 20 EE 5A 95 5C
 96 81 A8 4A 59 33 F1 11 3A DC 21 55 14 2B E4 17
 D4 AC 38 2B 70 AF F5 5F 35 0D 27 4E 62 0C 0C 53
 BD 09 22 4F 3D EF 36 BC CC F2 FE D7 86 28 67 FF
 D2 7D 0A 67 CD FD 7C 7E 32 8B 3A E4 37 59 00 96
 24 D0 C7 84 81 53 2C 24 5D B3 E6 74 BE 2C 86 2B
 85 A6 00 81 C0 CE 6F E7 5D FC E2 7E CE 32 C9 2B
 66 DE 54 B0 87 90 A9 D4 09 17 C9 6D B7 4B 25 70
 0F 70 27 39 F8 9C 14 D2 6E 22 B2 BD 86 13 43 5E
 C3 F6 8D F5 12 FB 46 A7 24 C1 2E DC F0 88 FB A2
 AC 6C 4A F7 72 29 D0 54 72 35 54 5A DF 74 9C F6
 25 3A 03 D2 6C C6 75 F3 8C E8 BF 3C 2C DA EA 8F
 59 DA 26 8E 76 C1 2D B5 86 BB 85 97 F8 D6 0D FB
 19 23 6F 4E 20 B8 EB D0 C4 67 D3 62 8D 83 9C 54
 8A 64 75 74 B5 67 E5 81 D9 E7 72 EB DB 7B 2A 3B
 0E 02 62 DF B8 57 E8 3C B9 6E 7A 29 8D 2A A0 62
 31 28 9D 5C DB 0B 63 EE 4F 39 51 24 CA E2 9E 55
 62 92 5B 79 79 AC 91 1A 4D 2E A2 5F 81 7C EE 6D
 55 44 87 1A C7 B1 3C 05 55 FD 72 A8 DC 56 1A 01
 8E 86 2B 0A 68 F3 72 FA 83 95 97 12 F4 17 05 A4
 57 05 97 E3 6A FC F5 73 F5 8B 0E C9 5C C5 32 3C
 0A 27 36 77 C5 7F FE D8 D6 8A C8 EE 9F A9 A4 FB
 2B 58 7D DC B0 01 D6 DD 6B B9 5A 0C 9F 3E BE DB
 F1 90 C3 F0 04 27 CF B2 B8 56 BF 18 11 A1 2A 8F
 61 16 5E 06 97 28 39 F8 C2 57 F2 C7 3D 58 9B EA
 80 7F C3 C8 A8 6F 80 B7 EF 96 56 39 8B 6A 43 B2
 1C F4 60 DC 08 A6 2F 45 E4 03 28 2B 5F 23 E1 86
 A1 2E 83 E6 80 EE 0B D9 31 5B 26 46 B3 25 3A 45
 B3 32 C2 F3 FD 65 AA 4E E3 01 37 C7 31 6A DE 6A
 D8 2E 73 96 4F C2 D5 F0 C9 C8 26 E1 3A E8 CE B8
 AD C6 D0 55 8C EB 84 0B 4E 15 4A 10 CA 5D 4A 85
 19 9D 40 AD D5 FD 95 95 64 8C 03 D2 A3 13 38 FA
 F2 04 6F E5 86 E1 4E D8 59 4F AC E2 7F 06 43 EA
 47 85 30 3F BC 19 00 45 71 DE A8 07 5B F2 03 0D
 08 0A A0 BB 37 39 BF CB 24 F8 7C 97 41 DB C9 79
 0F A7 48 72 B3 7E 1C F5 D9 6C A2 07 AE 16 D6 44
 2A 7D BC ED 4A C4 8D 9E EE 3B 4E 9C B0 AC 8C 7B
 01 0F 00 83 D1 7E 23 3B 86 71 F3 AF E6 B1 CB F1
 87 9F A5 AF 12 A8 90 6D E8 67 86 C1 07 97 DA 02
 6B 59 52 37 2E 10 8B 1A 39 7D A1 01 3E C7 7B 76
 5C 4D F3 FA 65 22 5D B9 D5 44 4D 6D 80 65 B6 BE
 AE F7 13 B9 6E 52 8F DA FF 2D A3 A1 5F 47 A0 7A
 CC 7A F7 0B 16 F0 81 EA 87 34 EC 4E 3D 68 BB DD
 B1 4C 35 6C F6 60 63 F6 CF 9E 5E 28 B6 E7 48 17
 35 A3 6C 7A FA FA A6 2D 5E 7E BA 82 7A 98 29 CE
 ED 5A 18 FD 78 E2 82 E4 CC 16 71 77 B5 99 C2 41
 E8 79 DB C5 9B D2 BC 89 E6 95 8C BB 11 80 C8 2A
 5D 56 34 20 E4 EA 53 8D 06 1D 7B 49 A2 B7 F6 A0
 C8 E5 E1 98 0B 6D 2D E1 53 CF 02 7F D9 3B 76 82
 32 53 19 C3 4E 6A 7A 41 34 B3 A3 6B 46 4E E2 20
 3E FE 3F AF 6A 09 18 90 B0 B1 3D 63 40 CC C7 A1
 25 EA 02 3D 4D 30 D0 70 EE 70 D6 7F AE 8A 2E A2
 64 50 30 E0 5A D3 BB EC B2 33 E7 D6 AC 9B C1 D1
 F0 84 4D 9E C8 A5 F6 A7 6F 5B B3 AB 04 4A E1 DB
 08 D0 80 A1 15 0E 3E 4A E5 41 1B 1C 69 60 7A 53
 EA EE 59 D2 8F FF 89 4F 32 34 DA B9 6E 53 0B BB
 2F E5 61 88 2F 0B E6 E7 FB C9 69 B0 71 2D 6D 33
 EA F8 13 6F 5B 4C 3D FD 7E 3B 03 BA 05 E2 4B 69
 3F 4B 5C E9 F9 AB 25 43 98 36 24 99 4B B2 69 DA
 B7 57 42 31 46 A5 6F 92 2D 9B E4 6A B3 E1 A8 B0
 89 57 3A 8E 30 7F FF D7 5D 1D 08 12 00 A0 8D 8B
 0C AC 2B E3 B2 2A 94 00 21 27 67 3B 4B E8 7D BC
 A6 26 93 CD E2 18 36 D2 51 9C 61 5F 52 19 36 02
 48 FE ED E5 72 1F 5B 98 43 DA A1 FD B1 08 3E 29
 9F 62 FF 02 36 64 58 7D 1A 61 D3 C8 72 BD 0A B1
 9F 10 16 98 07 D9 99 64 03 7C 20 98 1A 73 47 AA
 FA A4 D3 4D FB 1D 14 0E 45 B7 22 22 70 74 CF 6D
 D4 36 9B 59 25 98 C2 5A D6 AE EB 8D 0B 10 03 56
 D3 4A 7F 4C 05 16 FD BD B1 0C 58 4C 88 E0 CC 9C
 4B 34 23 26 6F 18 B9 FB 3E 62 4C 63 C8 84 B3 ED
 77 08 7A 29 49 1B C5 4C AA 03 7A C9 88 29 C4 57
 D0 8E 64 14 7C C1 BF 5E C3 48 EA 49 9A 95 88 51
 6E FA 96 6F FC 4A 32 97 4C BB F9 D7 94 85 8F 83
 AB AB B0 15 9E 3E 8D 32 36 03 98 9A D8 F2 FA F6
 41 DB BE 8F C0 F2 E5 E3 B3 56 CC 91 E2 E3 84 47
 5C E9 BF DE 34 03 87 DF 67 FE DB A3 0A 3C 36 5C
 D4 42 F7 40 58 47 20 8F 25 92 EC 04 88 4E B8 FA
 BD 4C C3 F9 05 FF 72 01 ED 98 B8 17 6B 22 1A 22
 2D 3C DB A4 86 05 30 02 2E 92 0B 4C 1F 3C 52 2B
 E9 EB 1B 19 4F 78 C1 9F 0C 35 8C B6 A0 A8 13 84
 63 82 70 F6 C0 58 1A 7B 65 CF AB 28 AF 54 F7 74
 A0 66 C2 B3 81 13 04 4D FF 21 27 A1 65 74 D5 51
 20 74 6A 0E 48 DC EC 7F 9D 96 32 A9 46 FC 14 3A
 97 6D 29 97 60 1E BE 8B A3 78 2D 71 03 49 DF 94
 E1 C1 2F 10 86 D5 19 F1 7C DB 92 DB EF 28 6E 11
 AD 3D 2D AC 8C 2D 9F C8 39 25 A9 1C 66 41 A5 B5
 6F 5C 10 29 95 F0 A7 2F 8E C7 6E 80 91 EB 68 7E
 2B A2 A6 0E 9D 3D 5C 04 0E 28 FF 2B 1C 0C BE D6
 F9 45 4B 90 64 EB ED 13 16 D0 46 04 88 11 77 2C
 3E A8 49 F5 A4 C6 54 EB 2A E9 0E D6 9E 65 6F AC
 86 C5 26 15 CC 20 B4 CB 14 1B ED 01 F8 63 D7 16
 6E CB 0A 20 AF C8 4D 1A 08 03 D3 93 3D A4 23 CD
 E6 27 16 6B 64 DD 0B B3 6A 08 46 70 42 EB 5C 52
 39 97 2B 13 B1 26 85 64 68 85 ED 07 1C 97 9C 4E
 10 52 9C 6D 4F 76 7A 1F E2 55 B0 86 05 48 13 C6
 23 77 EC 86 DE 7B CC 19 27 7B DD D6 5A A8 7B 14
 DE C1 37 54 64 55 63 7D 91 D5 23 EF EA 59 8F 4D
 3C 33 9D 50 38 84 02 06 48 10 ED B4 C8 42 86 65
 18 6E 8C 67 27 45 9A 1F 60 BA D3 AF CF 13 F4 D0
 01 DC 9E 03 89 55 50 B4 FA 5F 79 8E 50 73 74 0E
 B7 94 0F 87 43 33 89 88 31 55 25 75 B5 D5 CF D8
 E1 A4 CF 0C 3A 38 2E 42 CA B3 DE 31 65 32 3A CD
 EF 0E A4 6B 11 E8 B1 45 EB 2F A6 FD CC DE 04 EB
 B5 69 78 43 D4 A6 70 70 FC F0 D8 3B B6 63 67 BB
 76 BB E2 28 7A E0 82 7B A3 DC EB 08 95 06 93 C9
 65 A3 74 3D D4 D4 04 7A ED 82 0E B4 0F 01 1A 9F
 9A 7A 21 34 39 5E B9 E9 3C 78 E0 DA 7B 3D 4A DC
 36 46 4F 0A EA 7E E7 93 71 DE 16 7D 1E F2 A4 B4
 A9 92 0D 95 28 18 C4 54 C5 38 57 1B 02 6A 7E 81
 EA 64 CC DF D9 9C 7E 14 29 91 01 64 5F 1E 22 FF
 AF 85 7E 02 D6 49 75 EB 9A 5E 4F D4 B9 3D 7A 35
 8B D1 15 A7 25 F1 5F BC 8A 07 F4 C6 70 00 86 DD
 39 B4 71 72 DA 29 0A 23 9F FA 3B 2E 47 A6 CD AF
 90 66 5D 8F BB F6 D4 48 14 D8 B4 69 03 DE 95 81
 A6 6E CD 4D C4 8C C9 8F 38 6A 1B 63 C0 B9 CA EB
 F8 0B B7 D8 C1 2F E2 19 F0 5A 5F D5 DD 6A 81 AF
 89 B0 18 00 A5 AF 68 3B 8B 64 FA 7C 79 35 F8 1D
 08 0C 06 68 37 27 61 1B 55 03 A4 2E 52 16 3A F6
 32 1C A0 DA 0B 7F 09 D8 BD 04 69 23 DB 86 A8 0C
 96 CC 37 B4 BE E0 69 D0 B2 F9 E8 D2 CB 50 2F 0C
 1F 40 48 94 51 DD 4B 6A 2A 0E 23 27 6B E4 11 8D
 58 E1 6F C2 39 CE F3 19 14 92 3D EF 02 BE DC 99
 AD E2 FC 77 8B AA A0 6A B1 23 6C 9C CC 72 05 13
 B0 E9 A9 72 2E ED AB C9 13 BC 36 1E 34 F2 4A E6
 95 91 2E 8B 3C B8 C3 E8 2E C6 2C 17 37 2D 17 DA
 9F 33 0F 8A 0A DC 87 82 DB D1 50 AB 2B F4 63 A2
 17 8A 18 6F 96 09 75 44 73 49 13 0D 02 AC 3E 17
 BA 3C CD 50 33 B2 19 1A CC 3E 96 09 BF CC EC 0D
 E2 C4 E4 70 5E C4 B9 F5 04 2B FE E6 47 D6 18 2A
 B0 E1 A9 36 3E 8B 4F 61 00 AC 8B AC 62 B2 D8 5A
 FB AD AC F6 BD 85 1A 94 18 D7 41 89 C7 41 6C F8
 4C 2E FB AA 09 FF F9 71 92 AF 97 71 C1 D6 9E 97
 27 6E E7 3B 91 F1 D6 4F BA 89 99 54 EF 9E 36 15
 C5 DC 94 8B B5 BE 60 29 46 E8 10 2A D5 83 41 28
 D7 C6 80 A8 D7 7C 27 89 CE 07 C6 14 EF EA 48 DA
 85 C7 62 14 C7 C0 0B 4E 6F 42 BB 47 0F 9E 71 36
 CF 0D CF C7 54 EA 66 99 CD F7 56 E1 5B 87 66 02
 8D B3 63 40 E3 35 5F 32 C4 C5 1B 9C 0B 21 12 E1
 E8 F2 E3 E3 E9 4F D6 51 ED 46 DB F2 69 FE 62 0F
 A1 E7 1F EB 03 FB 02 7D AE 0F D0 A7 73 7D A3 BB
 92 8B 79 26 63 EC 0F 87 EC 73 36 71 6C F0 57 C3
 1E EA A8 F4 31 84 B9 20 C8 E8 11 20 7D 14 10 E7
 CA 25 B8 D3 C7 F8 37 E4 F6 C4 1E 3D 24 9C 7A A7
 2A B5 A9 DB E5 65 0B 55 E2 8C C4 3C A7 75 56 3F
 90 B8 E5 37 41 43 BB FB 1D 3A A8 9E 9E 94 31 E9
 72 B7 5C C5 12 99 C6 94 CA 63 9C 44 14 04 09 8C
 FE 96 12 20 E0 E4 24 71 63 31 4C D4 AF C5 CE 88
 C4 4B 78 CC 5F 7B B7 4A F2 4E FF 72 3F 82 E7 23
 68 54 0C 65 54 B7 41 20 00 CE 46 16 29 E5 32 90
 2E D7 83 FD 95 E6 AA 35 1A FA BA F0 B3 50 69 B0
 DD 82 B4 56 98 E8 F6 86 82 B6 78 BE DA CB EE 1C
 FD 41 D9 FA 74 D0 05 DF 92 33 11 D5 26 34 B9 04
 9D 6B 93 35 73 37 18 07 AC 17 2C 00 D0 2A 43 C3
 18 FE A0 1D AE 72 1B 4F EA 19 03 A9 27 05 A5 82
 85 05 E1 EB FD E8 C4 B6 A5 3D AF 8A 4B 68 54 72
 5B 2D DE 84 0F BF 7F F9 C0 9A CF C6 3D 78 B2 0E
 98 94 8B 47 EA 18 80 91 30 9B 4B 52 FE C0 43 44
 E1 25 F5 CB 02 66 A1 03 10 15 E2 A5 CB BC B6 5A
 86 D2 E6 FC 22 02 A8 0C 5D B5 54 53 38 29 81 C5
 3B 86 AB BB 36 63 0D D3 1A FD 86 CF 22 BB 02 37
 9B E2 A1 32 8F 76 E8 67 C1 BC 7B 3B 49 8A 4B B6
 31 6D C3 B4 DD 39 43 01 CF 33 4B AB 73 F2 B6 23
 80 1C 51 0E B6 E8 E5 A0 CD 5A F8 84 BF 24 13 79
 B5 98 06 63 DE 4C 2E 3D 00 0E B2 C7 98 52 0F 66
 A6 15 E9 EC 94 8B 4A E2 86 AB 61 41 40 55 B4 C4
 25 4B D6 D8 18 70 FC CA 10 6E 46 62 8B 42 AF 11
 49 EB BD C7 42 1B 99 52 7E 40 92 E2 8A B1 C1 F2
 8B 2D 02 B9 F7 BD 01 04 E6 31 B0 5F 9A DD BE 81
 AB B7 C0 6B 60 D1 A0 81 86 CB F8 C2 89 43 23 BF
 FC 68 70 4F FB 8D CE CE CD 27 BB 86 F2 58 7F A0
 79 16 10 4A 8A 70 15 35 B9 AF 2A 1A E0 D8 14 B7
 F7 C6 50 ED 76 F1 3C F2 2F BE 5A 6C 14 91 17 7A
 6A 84 F5 F0 13 7B 60 26 CE EF D9 EB 3A BB D7 41
 5C AC 61 29 39 48 87 FD 9B D0 1B EA 1E 50 6C 6B
 27 CA 80 85 6E FA 81 0F F6 88 03 C5 EC F8 98 08
 08 38 1F 12 BB 00 1C 5D 8D 53 53 25 EA 72 8C 27
 31 4C 6A 34 22 88 CE 19 67 1D CD A9 AC 1B FF C8
 64 0A 4D 0A 34 58 29 E8 4D 76 AC E3 C7 14 E9 E0
 11 73 E0 8E B4 53 AE A7 F3 29 B1 9F C6 3E 76 74
 B5 47 5B 1D 0F 46 A3 F7 54 A7 71 41 26 DD 71 75
 65 84 0B D4 8B 95 B5 36 D1 A1 DB 48 A8 0D 97 8B
 65 86 40 79 5A B5 3C 1A 97 87 06 3A 09 0F BB D4
 03 3D BC 34 5E 79 8E 51 CC D5 15 11 7A 8C 3F 17
 47 70 B9 C2 39 A4 7B D0 6A E2 29 36 A1 CF 69 08
 E2 09 03 A0 BE 7B AD E7 77 6A 91 0B B1 28 94 3F
 25 26 6C 5A 5D F5 96 BD 70 A4 E5 4F 1D 5A 02 09
 7F EB E1 BB 92 A8 EF BE 50 F8 8C F0 E1 E0 AA 76
 1D B9 0E 42 FB 42 23 DD D9 8A 2E 08 D3 74 47 DD
 9F ED E8 4C D2 E8 C8 FD 44 95 BC 4A EC 7D 0F 7B
 9F 3E BA 5D 7A 61 94 B3 BA ED 31 E7 4E 0E 18 42
 63 10 38 E9 3C 03 E1 40 19 82 0C AE 5B D9 E7 66
 52 41 A1 77 57 11 E4 8F 7E C4 B5 D9 4A 57 3B D2
 50 32 62 37 3B C1 1D 13 34 72 F3 01 8C D9 CE F2
 D5 B4 1A BA AF D6 C3 7C 8B 4A 4D D5 8A FB A8 3D
 88 1F 2B EA C5 53 6B F2 14 48 1A 3E E7 54 8A 43
 E5 CE E5 25 37 EE 90 29 F3 91 40 A7 7C 7F A1 E4
 60 EC 6A 1E 7F B5 2C 38 58 B2 91 42 04 FC 01 16
 DD 40 33 39 C0 04 75 F2 F5 05 ED 21 D0 13 DD 1B
 37 65 C0 FC 39 C2 53 DA DC F1 6C CE E9 05 97 F4
 6D 92 5B 65 0F 8D 00 08 21 86 2A 45 04 0E 7B 78
 C3 AF 7D 3C 8B AC 53 01 77 5F F8 0C EB 7F 6F F6
 21 9A 6B 6F 4A 9C 92 01 22 61 BF 06 3C 29 EF C3
 D9 11 B7 94 A9 47 14 3B 46 27 0A 85 A0 04 88 0E
 5C FE 35 9C 40 21 08 38 2A AF 0F 76 94 B8 25 39
 D3 CD F8 1B 1C 3E 84 0F 3F 13 00 9D 01 BD 2E 29
 F4 90 7F 2D 5D 6A 55 B6 DA E2 07 69 DD 43 0C CD
 33 FF 72 6A 57 A8 4A 28 8C CD 2D D7 50 5E 23 1D
 36 BC B1 5D 9C 1C 3F 81 8B 74 1A 66 A3 28 86 4F
 19 CB 7C CC FD 79 6F 9C 71 F8 4A 88 E3 ED B9 0E
 B7 E8 21 B9 7B 18 3F D6 4E 30 5F 13 E9 DA AD A4
 0F 0D 9B C7 A4 F5 79 EB 9C 58 4F CE 3E 37 99 18
 00 33 20 4B 4E 8E FE DC
* End 2473230983 3687856111