* LTspice Encrypted File
* 
* This encrypted file has been supplied by a 3rd
* party vendor that does not wish to publicize
* the technology used to implement this library.
* 
* Permission is granted to use this file for
* simulations but not to reverse engineer its
* contents.
* 
* Begin:
 F9 A4 36 19 10 AE BA C8 FE 07 61 23 6D A8 80 93
 71 D7 61 3F 17 08 5A 8A 09 F6 66 B3 A7 CE 65 72
 BF 37 B0 F9 3D 7A 96 7E 1E D1 92 CA 26 68 29 D0
 90 81 8A 9B D3 42 63 8B BA 5C F0 38 36 45 57 F8
 DF 28 48 6C AB 7D 06 21 99 84 37 1F F2 6D 77 D8
 54 78 54 AE 77 69 0A 15 F3 7A 36 01 00 85 BF 31
 B2 9D 41 82 DF AD F1 62 4C 58 BA 07 31 A8 60 1C
 43 C6 B6 AC 55 03 07 33 48 46 89 47 8B C0 08 51
 1C AE 71 53 17 E5 48 C3 79 4F E7 BC 68 B1 71 16
 E9 BE 0D 02 EC 4F F4 75 C0 43 0B C4 CC 5F 84 73
 89 B3 42 F6 95 94 31 42 3F C4 7F 49 E7 30 AD 09
 B8 53 42 DF D0 8E 5C D7 A2 DD 3A 74 B1 A2 C8 D9
 8B 84 96 2B D0 14 63 6F 97 E6 E0 AA 8A D4 2A 34
 BD 22 96 F9 99 14 D1 9A 38 39 49 AD 12 3C 1F C9
 64 0E 39 12 FD D4 5A 5F 0B B7 9E 1E 02 01 7A E4
 C5 4A E0 72 FF 09 83 E2 2F 47 C9 5F AD 45 2A 7A
 32 8D 63 96 03 13 91 FB F4 4C 50 A3 C1 EB 68 4E
 BD C0 02 E1 22 61 43 64 75 05 4B DC B7 2A C1 EB
 19 13 7A C8 95 F2 E9 05 55 DF DF AB 94 11 7E 9F
 5C AD 2D DC 24 B3 02 13 1F 2B 79 4F 0D A8 9E 8B
 33 CF 57 79 36 1B 98 8A DF FF D2 88 51 F6 5C AD
 89 25 E3 20 FC 39 FE 60 B3 84 25 C9 C5 15 57 D7
 4D 3D 64 61 84 1F 20 5A 4E 9E A4 7B 39 CA F0 DF
 19 0C 4C A0 14 02 32 49 58 19 AA 28 90 15 0C FB
 F8 4B C4 EB 5A 7D BF 94 A2 CC CC DF C3 14 5D 6E
 CB 81 8C C1 9E 42 F2 2E CC 82 B6 50 EC 96 2F F1
 33 B5 7B FF 26 DB C3 03 81 78 66 48 58 F7 C8 09
 44 73 99 40 D9 4D 08 76 C3 44 8F 72 22 5C 04 81
 4A C9 B2 C2 5B 85 A1 88 38 E8 EF 2C 14 E2 24 26
 86 90 58 C9 CA 9E F5 A6 92 0A 99 70 7F 89 1C BE
 DB CC 0F 3E 30 4D 72 D2 73 D4 06 7B 8C E8 86 7C
 CA D8 10 E6 EE E3 F7 CC FE 54 3B BB 9B B9 6A 57
 4D FB 3D C4 DF 9B C6 9A 83 4A 2C D4 E8 43 04 AC
 C8 A5 18 2C D7 22 BA 3E F5 B6 04 49 9B D5 46 21
 49 BE CE BB C0 30 D8 B8 5B B1 02 C0 8D 47 D7 21
 BD AA 0A 72 EF 92 02 B1 00 52 F4 2D E0 40 72 2E
 94 E6 54 12 52 8D 67 F4 E4 DC 30 26 C9 12 EF 4E
 F6 64 65 09 D2 C4 85 BB B7 00 96 8F 0D C3 19 DA
 3F A0 2E AC D0 A4 ED 2D 4E DB 48 7B FF 36 0C BF
 DC 68 54 57 52 0D 24 0D 18 07 50 AC E1 BE 64 22
 67 46 64 F7 8D 8F D8 C9 99 C6 16 9C 56 3E B8 B7
 07 11 3D 42 9D 59 36 0C 70 52 99 FB 59 44 77 3E
 2A A2 5E AC CC 1A 54 C8 89 57 F7 5B 5F 41 AB 1B
 22 D2 30 63 E5 EC C1 69 C0 D3 40 E8 35 32 41 6C
 0E 8E 5A 35 F4 81 4C B6 31 12 9D 5F D0 4E 81 FD
 F4 40 7A 2E D5 AA C9 30 3B 34 98 17 EB C1 DE FF
 F1 89 D4 B6 BB B8 F5 63 4F 92 A8 A8 30 56 5B B6
 0E D1 77 B4 2D 55 1E 72 AC 69 D5 38 A2 59 27 58
 EE 13 49 90 97 49 0A D6 C2 A3 4D 50 3D BE D6 B9
 A7 46 8D D4 8E 5F CF 6F 2C D2 C4 12 8C E8 BE FA
 4C 99 B6 06 29 16 29 34 95 BF 57 59 9D 90 47 07
 1B 63 82 4A CF C8 62 5D 7E 9D A3 5F E1 28 56 D5
 32 0B 58 D7 2C CA CE D9 25 F1 EF D1 29 19 F8 5A
 BD 9E 2E 1F DB 00 8F 91 0D DB 5B 5D 1A 6F D0 D7
 BE 9A BD 17 6C F4 7E D4 AC 1F 0C 3A AE 34 EB 7F
 BB B2 83 33 52 44 E1 59 14 96 50 B9 9C 47 B4 A2
 A2 45 8A B9 94 58 28 1A 8D 2A 70 5C F8 D7 40 E0
 89 0B 5D 7E C0 C3 EC E5 05 FC F8 8B AE AA F7 AD
 B1 57 94 3B 0E 4B 8A DD F2 FE 44 15 F7 6D 84 6E
 5E 58 50 BA 68 9E E8 57 31 87 8F F0 3F 83 2F DB
 FD 45 D7 14 60 5E AA D2 92 CB 0D 27 59 59 7A BD
 38 CC 1B D9 03 3A 50 1C 0B A3 82 CF 10 C1 5C EF
 9A 66 0D 78 AA 82 D4 01 E7 83 60 7F F8 55 9F 6F
 27 DA 27 D1 06 FF 48 2B 23 BF B4 4A F4 77 FD 9E
 CE 01 90 22 B4 05 48 84 76 51 9F CD 52 0E B3 9C
 DB A3 37 0E 4F 68 67 FB BC 59 58 40 D4 8A 5D FB
 DE 22 01 5A A0 AE 01 EC 1C A4 A3 4D E6 8C A6 E4
 DC D6 5C 59 EF 11 C3 60 C6 70 5C 12 7A A1 5D B4
 F5 FE DA DC 27 DD 08 17 42 4B 35 0E 94 02 50 07
 2C 89 91 08 62 C0 5C 59 72 B5 16 A6 DB E2 3A CD
 52 9C 6A 30 73 9B 7C 56 8C 17 A7 60 CA 1A C0 D7
 35 2B 0C 70 10 04 2A E6 98 C6 9B 98 C0 61 65 A6
 94 1B 32 76 F4 C3 AF 93 F8 8F EE 2E 4B 3C 3F B4
 DC 86 3D C3 08 5E 1B 06 81 63 AC 1D 79 29 0B 75
 C8 25 C2 76 97 21 8F 48 79 92 36 A9 4C 82 98 38
 29 AA 08 44 45 6D BF EE F4 B5 0C 04 57 8B 73 D1
 66 8B B1 15 9D 04 C1 BC 43 EC AC 5F 53 12 7B 64
 59 A9 BF 82 1C 7D A4 07 97 98 17 EC 80 26 07 0B
 23 EA E8 E6 17 A4 23 F8 D0 42 89 EB 66 2C 4F F6
 AC F7 CB D5 F3 4D 70 AC 71 2B 74 27 56 8D 08 4B
 FA 18 D6 B4 40 C5 62 61 EB DA A1 F0 05 F8 30 64
 CE 96 4B 62 A3 3E 27 F7 F5 2C BA 83 8E CC EB 22
 0C 0F EE 3D 34 DB FA 41 B8 21 85 B3 5E 5C 80 FB
 30 9F 66 BF 36 27 79 DB 26 65 5A AF CA 08 4C 12
 F0 C2 AA 31 30 BD EA 78 2B D7 E5 EB 5E F1 7C B9
 65 A6 4D FE 8B BB 42 E9 2A FF 51 32 C4 72 2B 1B
 D8 48 5F 7E 36 99 3F 37 A7 5B 66 26 3D 6C 75 D4
 53 88 EA 23 7B 83 77 B3 B9 91 D5 74 12 5B DF 9B
 11 B9 86 F1 E2 28 20 C1 F3 C9 8E F6 76 1E DD 8E
 EE 24 6C EB C4 05 C0 57 EB 29 7A D1 CD 1A FA C8
 4B 5A 99 33 0A 27 B1 4C BE 60 94 DC 87 BB 99 47
 6F 7F 6D A0 B0 78 13 CC 31 B1 62 0B 37 05 3E 1C
 3F 70 6C 46 55 33 39 FC 6B 2F BD 70 21 5C 6F 5F
 ED 84 15 DD F9 11 2E D4 E7 51 AB BD 02 CC BE 94
 60 06 1F A2 5E EE BA AC 06 E2 27 29 0D 20 41 D1
 29 7B E5 89 E8 31 EC 3B 79 EB 00 4F AA ED 60 2F
 C9 4E EC 29 A5 17 E3 E5 3E 2C E8 4A D2 BA F7 57
 61 DC 69 D5 84 71 8C B4 2C 35 3F 77 1F 6F 03 68
 46 EA C8 C8 7D 9F 96 B1 31 2B 86 5A 67 ED 00 4D
 32 4F 9F D7 6C 3B 74 86 27 B2 1C 42 A7 C4 58 C6
 82 88 D8 81 4A DB 76 02 10 84 DE 0F 6B 25 AB C1
 3B 97 CB 8F 66 85 74 C6 31 91 C5 33 D9 53 5D 55
 BB BD 9B 12 4E 68 3F F0 65 67 6F 2A 3A DA E7 53
 12 8F B3 CA F2 E8 16 1A 62 3D 57 34 78 E5 0D 05
 C3 D4 91 A0 B5 DD 93 D8 FC 58 66 E1 F6 DA F8 03
 53 28 A6 B4 93 DB 08 91 23 D7 C0 6F D0 8A DD 85
 A8 AE 8D E5 D6 57 C0 9D F0 5E BB 33 30 86 9E 58
 AF 48 92 28 18 AE 9C C7 8C 0C 70 B5 10 7B 84 3C
 0B BD 84 E1 89 32 99 92 55 14 B3 E1 0F CE 94 4A
 ED 4E 71 E7 23 94 39 83 FF AB 24 3C 1E 84 CB 73
 82 43 1F 25 3F 10 78 B9 09 8A E0 33 13 B9 18 D3
 22 50 B9 A6 38 B4 CE 6E E8 38 8E 13 DE 32 45 2D
 5B E0 A6 58 AD 13 DC 6F 80 6B A2 32 06 3B C0 06
 75 B1 0A 7A B9 A9 C0 6F B6 A5 24 5C F0 46 47 84
 1E 3C D9 C5 D7 A7 59 16 A4 57 2C 17 E8 62 5A DF
 90 7E 1A E2 E0 64 01 4D BC 01 88 C4 67 56 7C 77
 25 56 12 AD 32 38 4F DF 29 36 F7 1D 77 21 3D E2
 D9 56 61 4B 3F 62 B1 B7 7D 19 F3 B5 B9 16 FA 75
 EB A3 31 F7 8A C3 89 CA 6C D5 14 62 22 76 7C 55
 06 71 A7 07 C3 61 59 BE 5A 70 31 7F EE A9 08 D4
 50 6C 5A 6A 82 DB 74 F8 48 32 49 07 72 27 D8 59
 18 C7 1C 3D B1 F2 1A A0 FB 28 D1 FD ED 0D D3 99
 13 1D C1 0C F0 81 0B 62 7D 9C 44 C7 2D B7 8A 24
 F3 2F B5 A8 CC C7 FE EF 13 86 CF BF 9E AB 0C 3C
 7E 3E 32 A3 25 CF CE 83 E3 94 0C F5 FB D8 4F E4
 25 A2 6C 30 25 5F F5 EC FA 64 1A D5 C0 27 51 C3
 E7 C3 14 F2 40 2C BC 53 EE EA 73 92 66 17 63 24
 4A 28 8B B7 AC 2D 5C B9 D9 2A E3 B0 BE A6 D7 D4
 61 C3 B8 58 6E DE 05 6D AC 3A 1B 19 EC 44 75 4A
 19 AE 44 F4 89 B4 C6 94 2A 9D 2E EF FA 7E E8 76
 7A BD F0 19 F0 A8 6C 36 90 A5 CD 27 E6 97 D5 A7
 77 CE E8 9F AF 4E 10 27 6F D8 F3 C1 06 20 9F 5D
 74 3A 24 F2 03 59 3D EE 22 C5 0F BD FC 34 15 51
 42 BE A7 04 40 C7 87 4D F8 F6 C8 96 6B F6 2A 95
 DB DA AC 5F 8F BE 2C DA A6 BC 42 00 FE FF A8 3C
 21 73 FE B4 B2 EB 07 D2 A2 73 2A A6 A4 A2 07 97
 F1 1F D6 3C CF 2D 31 0F 01 4B 3D 80 A6 6E 6A 72
 BD 17 BC 8E 48 DD 2B 9C EE 1D 71 34 2C 71 F9 BA
 00 FC 15 FB 2B F5 CE AA A5 66 FD 4F F5 2F B9 CA
 BA C4 12 D3 B3 13 9E A7 9F 95 FD DE 32 66 0C BD
 C4 7B 9F 67 94 B2 2F 1E D1 00 70 B4 A7 DA 41 77
 98 90 C1 C2 3A 19 2A 1A 13 6E 0C F7 15 83 F0 AC
 E4 C4 DE F3 8A 64 4A 53 BF 45 2E E8 58 B3 51 FA
 D9 C4 C1 61 13 A9 A5 37 2A C5 97 1A 38 0B 1E 8C
 DF 8E 38 B1 05 1B DA F9 1F 41 06 04 F7 54 98 3E
 E4 C5 1A 7A 8F D8 08 51 47 41 59 41 A3 E3 B5 34
 1E F8 27 3B 89 49 D6 46 FF BB F3 82 25 02 CB 47
 B9 63 E5 71 97 6E 19 70 E1 6D 34 BB D9 98 1E 43
 25 82 68 57 B4 D6 11 4A 38 24 0D 90 26 FF 65 2C
 32 94 CE 39 23 35 0A 72 F9 05 F4 5B 91 90 03 40
 D4 C2 29 AA 1A C2 CD 96 1C A2 2C 8C 3A 55 9F 60
 DB BD F8 3C 6A FE 50 96 05 6A 60 78 38 8C C4 11
 60 EA 6C F7 E1 02 B2 62 D6 FA 22 E0 06 BF B5 FE
 B5 A6 7E 09 F7 92 E6 89 15 12 32 7B BE 4F D6 D1
 04 C5 AE 43 59 35 D1 4D 89 AE 0C 74 5C E5 EF 36
 84 3E 02 25 D6 45 6E BC 2B 78 F4 20 95 2D AC 1C
 26 B0 91 60 EB B3 F5 10 82 E4 ED 1D CC EA 7E D9
 CA 06 AC E0 E4 60 91 3E 21 A2 94 F1 6A 38 E5 2C
 3F D8 DC D0 07 AD 9E 6E 64 35 1C F1 E4 C8 A8 70
 FF E7 7C 3C 1A E3 F9 92 C7 40 4A DD F4 60 5B 4B
 FE 69 FF 8E E7 E9 55 30 58 7A 31 2F 2D 73 E0 92
 0C 21 8C C1 45 D1 B0 36 E5 70 B6 4F A6 90 15 D1
 7F 48 DD B4 23 44 9B 1B E1 BF 01 09 B9 62 23 F6
 2B BB 05 4C 18 F7 1E 3F 62 35 8C 25 44 CF D1 3C
 FC 31 E1 84 FD D3 3F CF C2 00 27 F0 1A F7 EB AA
 6B BC 52 6A 8E F9 DD 56 BB DC 37 3E 5D 4E 3F 57
 85 A8 F6 AD 75 F3 A7 E1 04 A3 E9 3B 01 6B C9 A5
 ED C9 D0 DE 67 A2 D0 2C 0E 8C FA 39 D0 D8 32 D2
 F4 24 82 0D A9 FD D8 1E 13 1F 29 4E 29 FD D7 5E
 0C D4 66 28 FF 0C 7F D8 0C B1 1A 8D E9 32 09 54
 C2 1D 3E 9F F3 F5 2E 17 7E E5 08 64 16 5A 6D 7A
 DB A6 8D C3 2E 34 BF 57 5E 38 68 69 80 6E 2D D0
 C9 BE F9 83 77 03 F7 B8 3A 29 7D EC B4 1C 3A D8
 62 BC 15 19 9B 5E 6F E6 45 9C 7E 85 58 B6 A5 3E
 34 90 C5 91 39 DF 0B D2 E0 BD 97 4C 72 D2 F2 78
 DC 11 2C C4 9B F0 B9 C1 9A C2 94 A1 AB DD 3C 8B
 12 1A 61 36 8F 97 F9 C6 F5 75 B5 90 CD AA 46 E1
 6F DD A8 39 75 F3 AE B7 43 A9 E4 F3 E2 97 28 7B
 B1 9D 7B 96 43 05 AB 4F EE 0D AE C6 43 83 41 55
 7A 86 A1 21 97 D4 A8 B4 6F 2C BC F4 A5 8A 11 1D
 85 1C C7 74 EF FD A2 D2 44 42 72 B8 FD 1E FA FC
 F4 FB F2 D9 98 1C 0D D4 30 CB 88 F8 6D 57 1E ED
 AC 58 60 79 EB EE 39 EA C4 E2 6D CF 61 38 E8 23
 9E DD 5B 18 DA 06 D6 76 6A C7 C7 E7 2F E0 1B 0E
 55 26 74 BC 9D 35 F2 57 70 40 35 9A 58 9A 91 3E
 25 05 3F 99 64 2D 25 CF 23 86 01 C2 45 14 76 48
 D3 F6 A5 29 B2 A5 C5 9B 27 7B 0B 04 55 E9 1E 1D
 49 A0 FB E4 6C 6A AA CB 76 83 34 E4 48 F2 6F 41
 EE 99 88 58 95 AF 27 14 97 AC AE 55 D7 56 F9 07
 1B B1 90 3C 9F 4A 63 61 B0 6C 2B DF 0A 50 14 73
 0C 3C FA 4C 23 CD C6 F7 6B 44 65 AD EA 06 9D DB
 55 03 9B D7 AE 4D CB 98 2F 29 6D B6 52 32 B5 A9
 86 42 C4 37 F6 65 FB 89 89 D2 75 4F AC 10 36 23
 6B 98 6E 81 75 1E C4 D5 CD C4 CA 70 70 81 C4 8B
 2F E2 9F 9A 6C 90 6D 59 7C EB 92 01 AE 0A A9 23
 59 6D 6A 5E 7D 5F 86 0C E3 10 78 8F B5 30 8D 08
 0E A1 71 63 69 FA DD C8 12 16 14 0F 38 09 F2 F0
 93 1B 45 A9 D5 A1 B6 13 2A B1 66 FE 98 5B C7 B5
 32 CD F1 88 4E 66 E4 49 E4 AC F4 02 76 06 1E 0C
 84 9C C3 C7 2D 3E 63 7C 25 2F EB 89 EE 80 25 C7
 EE DA 01 18 F8 AE 21 2D 9F D6 96 D5 C5 24 B4 54
 25 63 5E 11 A1 D1 6A ED E7 C0 D0 0C 7C 54 FD B6
 4A 1F 88 C8 49 50 FA 8C 77 8E 4C DC 50 5D 32 6A
 1E AE 7C DF 5A 1F 79 FF 78 56 29 B8 76 1C 69 6D
 07 DE 42 EE 0A 0A A4 78 3D 56 B2 2B 48 3B F4 75
 94 97 97 36 00 62 3E 6C DC 50 2F 81 CB B4 EA C5
 61 D0 7B 0B 8C 2E E9 8D E1 E7 78 4E B2 A2 A8 AE
 26 6E FB 59 65 D5 FB 1C 36 D9 84 85 22 EB CF 55
 34 B7 6A 5B 8D 45 F2 66 26 0A DF E5 99 22 3D 31
 A5 5B 1D 76 E4 CD 16 9B 37 C1 87 7F FC 8F C2 B2
 E1 C6 5F 77 0B A6 52 42 BF E9 6D 6A 52 80 97 02
 34 49 2A F1 4B 50 10 FF CA 3F D3 C5 97 C8 13 8D
 6E 35 22 5A 08 8D B8 58 11 F6 EC 1E E4 FE 48 A2
 20 BF E3 84 BA 23 8E 1A 28 DA 23 E0 AB 0D AC 92
 24 0D 04 AF D9 91 F3 92 64 88 21 53 2A 7B B6 B9
 C9 23 8D A6 D9 2C E2 45 FA 79 67 2E 84 D3 7D CE
 95 5D 32 56 E8 16 E8 C1 22 6E BF 10 20 7D D5 C7
 0E 20 AF 32 C7 59 0D A9 0A 4A C9 5D CF DE B3 CA
 EF EA B1 44 47 07 65 3A E4 BB D4 43 67 71 DC C9
 F0 83 A4 2C 98 EB BB D9 78 4A 9C 61 E6 EA 7C B4
 04 CC 73 33 BA 5F 22 AE 24 8F B7 89 77 62 E4 F5
 40 08 10 12 62 18 AF 71 03 0C EF A4 4F 68 16 08
 49 D0 65 91 06 43 39 1A 92 94 0F A5 60 F8 5C 22
 4F A5 2F 5F DC 0B DC D1 04 EC 10 C0 4F 46 5B E1
 7D 69 A9 C9 F8 21 CA 82 7C 95 36 FB 58 65 D2 91
 A6 7E FA E1 2B E2 3F F3 75 FF 15 58 D2 BD 75 0F
 4A 30 47 0F EF 14 67 46 93 97 8F DF 4D 7C E3 3D
 35 EB F1 A7 C9 6D C5 9D 6C BD AA 95 2F 13 23 3C
 23 6E 7F B0 D7 9E 04 1A C2 8B 00 5E DE 13 2C 38
 68 BB F4 97 01 81 CD 29 BE 19 30 AA D2 66 7F 56
 23 F3 8B 3E 3B DF 47 D8 D7 1B E3 12 4E BB 0A 40
 29 06 65 49 8A 84 93 69 14 D2 D1 25 C2 C7 D0 43
 72 2E D1 19 75 7D 4F F7 9B C6 E1 55 D9 A7 23 B3
 70 D7 B6 13 1F 44 FD 28 B7 F3 DD 8B 91 DD 90 B5
 C9 BA E7 78 C6 6B FD B2 EF 08 F6 C3 EF D2 9A BE
 9D 51 FC B8 35 08 29 06 99 11 8B 6F 4D 91 94 EB
 22 5E 33 60 14 FB 2C 54 8C 78 D4 EC AF 71 7A B6
 E9 C0 46 54 D1 FE 38 CF AD 2A C1 CC FE F6 D9 87
 9E 5E 49 6A A1 5A BF AC 39 29 A0 6C 40 3C 35 C6
 80 F4 8E 8A 8F BF 05 D4 42 D2 48 17 7D 31 F9 F9
 C5 B7 08 D0 87 92 40 94 1C 35 C3 5C CA C1 F6 0B
 02 0E FA E2 4B 0D 9B 53 61 5F 02 70 D0 DF 8B 31
 C9 12 B6 64 49 C3 70 1E 26 BE E8 0B 59 A7 4E 8A
 0F 6E AA 05 F7 73 4E 7A 94 95 7A 66 0A 16 6C DC
 57 6C 55 A4 A5 C4 3E C0 70 2F DD 68 A0 F7 D2 FF
 CF FD 39 EF 41 19 1A 4C 39 10 9C EE E7 A3 6A AA
 3D DF F5 CB 25 02 36 B7 BB B7 26 A6 37 92 8C B4
 35 8E C5 68 61 4E D2 32 98 18 DA EC 75 31 6F F7
 76 5B 55 46 AA 7C BD 3B 2C 93 23 61 D8 BD 86 76
 94 FD 0C FE E7 DF 0D 65 BC F6 11 DA EA 3A 28 5F
 DB C6 B6 AE 3A AC 44 C4 09 90 01 D1 0B 9F A0 54
 20 DC F6 23 6E 9E 46 42 55 D5 75 BC 76 AD 52 47
 44 98 B6 69 00 77 43 C0 C3 BF FE 9D FD ED D6 60
 CF 49 0D 82 4B AE 14 AE F4 15 CE CC 0E F1 EE 26
 CC CD 83 70 77 7B 41 32 13 E7 33 ED 36 C9 B5 2F
 AA 6E 17 99 54 BA A8 B9 2F 4C 11 3A 9A 5D 39 D6
 19 66 31 FE 3C 10 BD B8 8B 4E 87 7F A2 72 22 FE
 81 1B C8 BF 5B E7 24 4B F9 8A 43 07 87 56 4D EA
 6A 5D 4D 9D FA C6 04 4F 29 FC 9D 90 19 B1 17 63
 A2 77 12 CE 58 D2 A3 20 8A DB 6D C8 E3 DB B3 C1
 B0 9B EB FA B8 D2 28 54 C4 2D DF A4 D9 41 00 E5
 2D A8 B5 CD 8E 9A 33 F3 4D 41 58 74 41 CC 1B 4D
 AC 17 60 27 1A B9 FF 7E B7 FA EF 8D 14 B0 5E AB
 6C F4 C6 14 00 4A E4 B8 DF D7 D4 A6 79 2C 10 B6
 F9 0E 35 EE 35 B9 95 F0 0C FA E1 B4 C3 17 24 68
 E9 69 38 67 B3 9E C1 AA 14 7C BC 43 D8 3A 84 65
 B0 86 EB BF 6F CB A5 30 F5 5F D7 0F CE 3A 2F 58
 AC 00 6F 31 4E F4 36 41 9F 34 1A 58 BE E9 E4 51
 C8 DE 96 3B 43 14 CA 27 E0 98 8D 8B 63 51 7D 70
 36 3D 79 04 E4 DC D1 DF 02 3F 0F AE BE 08 6C 75
 7E C1 C2 89 66 C5 80 F1 F9 A4 D9 32 2B 07 7A A6
 89 15 96 3D 7B A9 3D 9F BC 07 75 59 72 A2 09 EE
 B2 67 8C D3 5E 72 93 3C 63 0A 0E D7 6D F8 0E 89
 32 F4 9A 5B B0 45 DC CE D6 6D 7A 80 92 B7 1B 7E
 95 11 86 1D F8 4F 45 9A 13 03 F3 7B C0 41 78 39
 7E 51 57 40 FF 64 D6 95 BE 51 E0 F8 27 31 7A B8
 FE 61 B2 BF 11 09 D8 3C E7 D7 B0 2A FF 63 8A 9A
 65 FF 9B AD BD 0B 84 B8 CB 61 B6 D7 A3 6E 8A B8
 D3 4C CA 95 E7 42 8E 5C CD 01 28 63 85 F6 18 58
 6E 3A A0 DF 1B CC 60 AA D2 93 7E 72 96 E8 90 76
 FB A5 88 E5 95 1A A1 6E 6E CE 1B F2 77 BD 48 C6
 70 D3 D7 67 9F FC FE 23 52 0D 65 23 4E 38 D4 8D
 FD 09 A1 C9 73 D4 B6 C7 A1 C5 38 08 ED 93 AE 75
 DB EC 9B 16 90 65 92 F3 11 52 99 47 04 E4 AE 87
 A0 32 DA A6 40 E3 A7 82 0E 36 00 71 9E B0 6D 38
 C4 6F E7 3B 59 E1 18 A1 C1 1F 4B 68 45 D1 22 C7
 4E 0E F6 D9 1A 2E 03 03 17 4B 86 C4 22 7E 36 82
 86 B8 C8 CE B9 95 0D 81 53 32 E0 B6 8F AE 6F 4F
 6A D5 11 AE E5 4E DC D2 3D BE 86 F0 DD 24 FB 2D
 14 0E 7A AF 9E 0E 01 FB A0 5B 89 A0 D9 A0 C7 73
 BF 31 53 5B 00 00 64 46 67 45 AE AE 91 CB B1 0C
 D9 78 4B 0B 5E 24 03 C6 FC B9 58 13 31 BC DA 0A
 E0 28 D5 CB 3A 55 AD 04 D6 02 08 C7 5D 20 9A 68
 6B 97 67 F1 83 45 4C 55 68 DD 8E 10 A2 59 7A 22
 6D 32 FE AC B1 AC ED D0 66 11 F4 4B 05 D5 01 DF
 78 A7 36 89 1F 05 98 E7 EC D8 38 0D E3 28 06 E8
 89 7E 4E 02 70 90 ED 41 8E 94 56 0F 88 86 D6 84
 BB E8 4D 95 1D 5D 5E 32 F3 1F 2D E0 71 90 72 F5
 A2 29 E7 26 64 1B 7A CE 11 35 BD 30 77 3A E1 0F
 B6 3A 5A DC F1 A6 68 89 94 81 50 6A CD BD 7E B3
 F3 16 DE 19 2F 90 B6 9A 43 68 54 E4 EA 30 8B F8
 1C CE 7F 4A 8A AA CC B2 1D F7 C2 FE F3 4C F7 64
 AC 68 57 A8 09 A8 98 43 6A 29 B6 42 04 15 61 CA
 F4 F3 08 F2 0F 85 7D 81 46 7E 35 20 4F F9 6B 62
 31 40 C8 6B 28 BF 11 04 B4 FB E8 C9 C8 CB 77 BB
 17 E8 D7 00 4D 51 8A 0E 8D 94 0B CD DF 0C 7F D5
 B7 ED 00 39 24 F4 CB 7F E3 C3 A6 D9 2F FA A0 98
 B3 DA 29 5C 0C A4 D0 F7 57 2E CE AB 39 31 86 15
 94 60 69 B2 33 7B FF 52 04 C6 C9 34 67 9B 3D AD
 59 EA 5D A5 83 7A 86 2F 97 D3 30 29 09 43 31 14
 84 90 40 B7 25 CD 76 14 4D 32 68 E0 DB 64 24 DD
 D0 B6 F8 A0 56 0D 79 E1 AF FD E4 73 76 59 3F 5C
 92 8F BD 38 65 B5 75 A7 4A A1 50 CF C8 A2 0D 83
 0E E0 4F 8D 6F FB 04 B9 7E 9F A2 5A 57 77 56 77
 17 69 95 38 7F BD A7 C3 42 CE 93 79 22 67 43 F1
 04 0F FD 84 AC 8A C5 5A 42 D3 BA B3 23 4D 48 45
 2F 6E 01 F6 E7 01 A6 45 12 1F 81 31 0C 53 BC B2
 16 84 FA 44 95 04 5A 87 41 0C A2 0B 43 24 6F 64
 57 5D 1B 3F 25 93 9D 59 A2 34 F2 A4 CC 38 BE 02
 C7 8F 12 53 AF 1B 43 35 01 B5 A6 7A C6 AC 9F 2F
 39 B6 5A 60 7C 18 2D CC AE CB D2 76 C2 90 C9 22
 38 31 9E 40 99 87 8F A6 6F 79 CD 35 51 48 95 6C
 0F A1 35 11 22 39 D4 85 08 61 37 25 1A 7D 6B 32
 60 B4 89 81 77 50 B2 88 14 82 B7 8E E3 8D F6 18
 CB 36 1F 90 48 E3 72 5B 37 F8 A7 17 7A 59 FA FC
 BE 5D 04 62 A9 66 67 5F 90 B4 0C 63 3E 9B A3 FE
 D2 53 34 71 13 1A 0B 20 26 EE CD A2 CD D2 07 10
 63 09 6A E2 89 4D CB 10 3A DB 9B E5 70 12 29 67
 CD A5 E5 0B 9F DF A0 11 78 33 4E A4 25 6D 51 E0
 A9 09 21 7B BE 64 44 83 24 DC 81 60 A8 48 8A 5E
 5E C6 BC 4D D6 0A 0A 42 37 E1 2E 0E 70 E3 A7 65
 B1 38 AE 0E 59 F4 1E F6 A3 BA 11 3F 14 CF 2E B5
 A2 86 C2 63 CB 1F E3 81 E2 DB 6A 37 46 D2 22 42
 1F 2A 69 0E 67 3C 4B C7 46 94 06 3B 34 88 01 0B
 A4 DB B1 F8 16 C2 32 A5 46 80 47 05 6F 97 49 8D
 24 14 79 4D 4F D2 FB 2B 0D 24 15 8D 64 16 F2 33
 8E E0 1A 6D A8 B7 B4 08 86 22 53 36 89 33 3E C7
 F9 7F D8 AC 10 8B C4 9D 49 A8 07 F6 07 CF 56 B2
 CB BB 8E AD 4B 5A FC CD 12 81 F2 AE 22 80 9E 54
 FF 5C F7 63 D5 F0 E5 1F 5C C8 FF 6C B3 A5 70 70
 8C DD 9F E3 6C B3 FC AE BB 6A 4F 1D 0E EF 35 C2
 CB 5C 93 7F AE 5C 1B 50 24 47 E8 75 A7 A4 F1 D3
 F7 25 84 E9 04 1F FA 56 DA 80 FE 91 3E AC 95 F9
 96 AD EC A3 9B CC C2 7B E1 80 09 41 44 FD 30 93
 23 41 6D F8 9E 6B 66 77 F4 A8 A8 77 18 EA 46 DF
 6D 33 E2 7B 7C AD DC C9 1E D1 4D 98 43 C5 6F 93
 C4 D3 D0 91 06 25 D8 73 C2 32 FB AE 45 F3 3A 58
 87 5B 0C 67 60 B9 A1 F8 0A 60 33 69 D0 3A EA D1
 6E 9D 5D 9B 07 32 C0 59 F1 F1 9F 60 A6 D7 B9 5D
 A1 D1 4A CB 7E 90 D7 8D 47 E5 1B C6 2D DF A6 14
 09 29 E6 69 4F 39 E0 74 C7 90 92 2F AC 64 23 41
 BE F1 EA 52 E3 E3 B9 F4 66 03 23 A5 F6 94 BE 45
 1A 73 78 3C 62 F5 66 F4 6D C0 BC DA 85 D8 F2 E2
 C0 CA F3 C2 EF E2 1A 2B 7A 88 13 99 E4 EC 10 4B
 9A 46 D5 01 5E 75 38 FC 13 21 40 3F 47 E5 E3 FD
 66 91 3C C0 51 41 45 A2 F3 67 3B 61 20 41 A6 59
 86 D5 45 6B 2C 61 EF B2 C9 E6 6D 9B 8E FC 8E 05
 C4 8D A5 31 BE 12 90 B8 E4 66 7B 2B C9 97 02 A5
 D5 81 B0 14 F2 42 81 4B 7D 87 BD F3 3B 1B E1 7D
 F0 90 F4 DD B6 C6 15 98 11 75 57 54 14 0B AF 39
 24 52 8F 30 D9 DE 90 A4 E3 BD 6A 75 A6 99 C9 FC
 91 68 BF 7E A5 BA 10 CE EA 76 40 0D 29 07 20 05
 23 23 13 60 1B DA 84 87 BF E6 13 CE A6 13 1F EC
 C9 CC A4 38 4E 43 BC 97 3E 72 AB 1D 05 E3 60 72
 53 3D 29 11 2D 66 81 3E 94 B3 D4 A4 3F EB A0 14
 21 71 F7 51 51 B5 F5 E4 79 CA 7E 25 B7 31 76 EB
 D7 A5 05 B5 F1 34 74 8A 71 A3 A9 81 44 D3 81 71
 5A FE 4E 8F 83 55 96 B3 17 C6 1A F0 67 9F 0E 10
 36 3C D5 BD DE A6 D1 20 08 6F 0D 50 B2 BF 7B F7
 5A CF B6 84 39 2E EF 26 F5 9E 52 9A 1F 84 CE D3
 31 0E D7 FE E4 85 AC B1 30 05 AC 9E 91 BC 7D 3A
 00 18 68 78 61 A7 9E A4 FD 86 EC 8E F8 D2 11 F6
 94 23 5E 3F AB 07 FD D5 24 93 9E 2B C8 6A CA 0D
 D7 C1 95 C8 43 79 EF 93 B8 4C 4D 54 AD C8 0E 03
 62 3E F5 05 8B 3A 03 83 E6 92 52 E8 B3 DD 2C 3F
 73 84 8D 7C 9C A0 B1 CA CE A3 F7 C3 B4 D9 F0 BE
 64 B0 E9 4B 4C 55 76 93 11 5A 16 DF 69 48 16 25
 83 F1 6F 47 63 71 57 AC B7 84 F8 25 74 54 C3 4D
 05 A6 16 66 3B B3 BC 41 DC F4 E4 11 4B 48 7D 8D
 3E D0 A1 95 BA 3F 9E 63 B3 75 FB 92 DD A8 97 7C
 77 BF 93 3C 53 C5 B1 42 F9 A0 EB 47 CC 5D C2 DA
 58 C5 4E 2C AA 5F 19 74 30 E4 D8 A4 A4 23 29 35
* End 539036801 1294921519