* LTspice Encrypted File
* 
* This encrypted file has been supplied by a 3rd
* party vendor that does not wish to publicize
* the technology used to implement this library.
* 
* Permission is granted to use this file for
* simulations but not to reverse engineer its
* contents.
* 
* Begin:
 CB 80 5B EB 45 9C F4 CF 28 81 DC E8 C4 81 E3 50
 89 D9 E6 D2 82 48 B5 D6 F8 3E 74 80 FA 4D 26 67
 A7 D8 A8 53 D3 0C 45 31 37 65 3F 1A 89 C6 CF 36
 63 B1 D4 4F B1 1D D2 32 E9 1E 61 36 55 3E 53 BA
 CB A3 DE B2 D6 4C 45 1D D7 47 1B 21 D9 41 28 74
 C5 9D 30 01 FC B9 A4 15 F0 5F 00 CA 15 E9 32 0F
 58 A8 9D 17 15 91 66 30 09 F0 00 A5 B2 93 43 4B
 08 48 88 91 7F 84 3A BC 3F 3F CC 26 52 74 41 60
 93 85 F3 1F 54 21 56 BB E1 56 6A 02 20 64 EB 9B
 06 2A 16 C9 2F 3B 26 F9 E8 39 0B 14 22 66 07 91
 61 26 D3 87 EC D7 27 40 B3 0B A5 24 9D 5E DB 19
 1E 12 FF CB 4A A5 42 C2 2F C3 52 54 DF EE D0 91
 BF C7 F6 C2 52 A1 8D B9 4F C0 6C 9B 40 FB 6F A4
 12 71 01 02 D2 4F 19 3D 85 5B 16 9E 04 90 96 25
 1C 6C CA EB 0E 7B D1 8C 2B E0 AB 45 A5 3F 21 69
 25 3F 79 13 2B 94 AB 2B C0 AC 1B CC 50 FA 2D 67
 8B 00 B7 32 C5 74 FC DD A3 4F BD 08 03 1E CA E5
 05 C7 80 5D 5A EF E7 CF F1 12 3A 91 69 1A 4D 22
 9F 4A E3 F7 5D 4E 06 20 4A FF 5D 44 93 F1 8F B3
 F3 1A D3 E4 10 08 32 6A 1C 8C 02 F5 AC 71 C6 0D
 F4 AD 89 3E A0 F2 15 5D B2 30 4B 84 5F C1 29 51
 14 66 E0 23 E6 A4 5A 0E D1 15 EF CC 56 8F D5 DC
 31 03 70 66 03 B1 D3 E5 90 BA 09 1D C0 81 96 3B
 DB 48 CC EC 92 9C C7 69 4F DD E9 18 8A 2C 88 D5
 92 FF D8 17 25 74 1D 2A 90 98 D7 F0 BD 2D 80 C1
 64 5D 1B 1A F7 85 60 16 96 33 C5 DE 73 3E 2A 5D
 CB CE C2 28 BC 96 80 68 00 66 64 C5 B2 02 15 A1
 19 AE 5F 20 2C 28 C3 72 3F 24 2A E7 D6 28 D6 C1
 17 43 62 22 55 F4 69 65 B6 83 1F 85 F5 FF 8E 69
 B9 4A 2B 53 30 D9 1A 6A 4A 85 11 BF 10 A0 DA D9
 85 DA FF BF 90 30 70 F4 02 06 62 DF 43 D3 7E 05
 EE 2C EE FE F4 78 32 04 7A 53 4F 9D D8 92 51 B9
 CA 38 9B 76 8E CB F7 DF A7 94 E7 FC 17 F5 AA 21
 0D E0 70 0C EE A2 6F 54 AF 99 98 5B B6 F5 B5 2B
 EB 31 C7 81 48 25 BA 2F 89 39 A9 BF 4B 13 CB CF
 36 F0 54 8E CF 79 33 97 A0 BB 26 3C 41 B0 E5 02
 21 C1 DD 10 F7 0D 98 53 3F 43 04 3E 14 F0 A0 4C
 CB A9 66 82 D8 55 FD 6F 7C 76 DD C4 35 18 24 CB
 98 9E 10 FF B4 17 72 9E 44 EB 5F 6F 32 8C 98 F5
 86 2D 17 27 E3 A7 5F E5 95 9F C7 5B 98 40 D5 83
 C6 C8 9F 18 C7 BE 54 59 90 CA 15 3F A2 DA 41 B2
 F8 AD 31 B9 C1 38 E3 AD D3 0C 7C DB 8F 51 EE 64
 28 E8 E5 3A A0 00 DB EA FE 69 B2 2D 64 2F F4 55
 73 8D 6C 90 3F 0C 3E 9A A1 FE 0C FD 8E 53 F6 05
 4D CA 64 A9 E1 72 0F 62 75 A0 52 7A 28 03 83 2A
 21 1C E6 F3 89 EC E5 BC 40 6B 6B 9B 90 C6 F8 2E
 4E 25 AE A8 2E 4B 2A 9F 60 05 AD 0E 88 FF C7 F1
 70 01 CF 56 A7 C3 07 B3 BD 7E F6 88 27 8B FB 25
 83 F1 73 1E D5 A6 73 1F 16 37 B2 9D EC 6D 36 06
 5A B4 D2 2C 8D 88 4A 6F 1A 9C AE DF AB B6 41 99
 AC 7E 90 30 A9 E8 59 7F 82 98 75 5C AF BB D0 CD
 64 C8 30 36 2A 7D 49 43 15 BC 21 D1 46 51 24 3B
 C6 87 05 7A 94 4F 56 CB FC 59 97 F2 F8 EE BF 46
 96 E0 62 13 EE 8C 7F D7 2E 99 A3 27 74 BF EB 9D
 46 54 82 A0 6E AF 4B 73 A1 2B 99 83 2E 6B FA E0
 27 04 35 88 F7 83 D7 EA D7 08 D0 69 6E 44 76 68
 6A 8B 8E CA 8C AC 39 A1 E8 52 A1 66 91 71 21 8A
 8C 8C 07 5D 7D 87 D3 AA 4B B7 BC B3 4B 54 04 3D
 B8 7B 2C DE 21 7E 15 14 01 C4 CE 39 0A F7 86 94
 B3 21 83 58 C1 39 9C 57 14 E8 47 D8 34 6B 27 A6
 71 FD 9D 1A 8F 02 6C DD 02 17 CB E3 12 2B 56 AD
 2F 08 EC 35 F2 2C 21 54 E3 57 CD 38 EF 1B 97 B9
 03 22 2D 83 5A BB BE 22 AF 45 BA 9A 45 59 06 87
 65 BF 00 C7 FA 35 D6 07 79 20 39 92 0B EF 95 64
 8B C8 1D A7 B7 7E 3B BD 3C 62 E3 04 26 2D F0 72
 63 C7 84 73 D4 90 20 3A 89 C6 B6 B3 65 EB 5D 77
 83 2C 0E 2C 55 C5 F4 59 64 69 11 94 07 24 97 E5
 87 49 F7 A7 6C 23 E1 C1 24 CE 60 0A 5E 3E CD 71
 C5 F7 CC A8 D3 BF 24 5B 2B 57 B6 9B 01 11 FD D1
 25 A3 A7 5B F4 02 BE A1 BD 33 7B AD 3E B6 7A 37
 CB 57 B5 0F 42 07 27 1B 52 CF FE 30 01 F2 AB E7
 E4 9D 60 89 83 4F EB 50 94 39 DF E8 7B 0A 22 39
 12 55 C2 02 76 3C C1 B9 FD 2A 0C 57 08 50 D8 AF
 1B 4C 83 02 CB BC BC FC 57 F4 E3 54 9A 8E 8F 30
 B4 AA 08 5F 31 5E DF 4C 71 D6 D9 D1 BE 11 C1 68
 17 0A 77 03 16 B2 D2 8A 0D 5C E8 43 88 3C 6F 5C
 72 3F 42 A0 1A 61 0B A7 F2 C9 37 5A 97 E7 1A F4
 1F 0F 14 6F A3 C9 C5 20 20 11 F6 81 83 49 71 24
 12 25 1E A6 19 04 12 0E 57 6A AC EE CC 0E 99 3E
 24 62 F5 F5 2E D0 B4 82 DE 68 3E 62 A5 EE 69 AA
 7E 28 09 03 2F 23 BF DF BF AB D6 5A 74 E7 8B 1A
 77 81 7A 36 22 95 12 99 E5 26 6D AA A6 9C D3 3E
 CB 6D 07 18 2A 4E 2E B4 8F 12 C9 FB 1C 5B 28 36
 E9 AB 52 5A D8 BC EC 50 09 B3 A7 11 BC C2 42 E4
 F9 F8 49 67 00 F2 27 00 C3 3E 58 A3 4F 6A D3 50
 BB 27 2E 58 6C EB B1 A2 A9 31 0F 9E B3 6F 09 CC
 10 56 A8 8F D6 ED C9 F6 0B 46 F4 99 95 0A 81 D8
 1F 88 25 C2 62 ED 1D A9 DD 53 8A D8 E4 50 D0 07
 8E 5C A0 F7 E1 9C 71 DC DF F6 71 41 45 20 F9 6F
 F3 A8 70 35 48 8A A7 36 12 C3 D8 82 8A 41 CF 9F
 38 8B 92 AC 68 72 78 6A 35 8F 98 48 AA DA 24 EF
 DF 30 35 AE B9 16 E0 B3 2C AB A3 0B 3A 40 03 D4
 3F F9 34 B8 3A EB 8E 94 55 D9 DC B9 B3 97 D6 38
 4A AE 74 37 DC 1C 0B 09 E1 7F 4C 19 26 D2 00 F9
 2B C8 E9 CC 34 13 78 E2 C2 CD 43 DE 12 D5 C9 36
 73 EC 7E 17 0E BE 51 E8 DB D5 9B 93 4B 67 56 02
 F7 F4 A5 E4 87 E6 F7 82 06 CF 2D E0 4C DE 8E 46
 A1 28 C1 7D 60 45 88 13 4D A3 23 36 71 FD 67 F5
 1C 45 D9 9B 0C FA 8A BD D0 EE EC 23 24 01 C2 A3
 FB 4B 35 3C C4 BF B9 55 84 EC 6E 9B C0 EF 4E 7A
 C9 6D 1A C1 62 C2 B5 2A 6A FF 7F BC F1 79 A9 E8
 91 36 FC A3 A0 7C D9 0A 99 C6 9E 6D 28 AC 54 18
 03 AD F5 59 67 63 4A AB FB F2 84 59 9C 30 9C FF
 E7 14 C4 DD B5 CF 3D 56 60 68 05 F8 31 42 A4 D3
 3E 08 6D AB AA A8 1B 32 9C 8B 13 1D 75 FD 56 85
 E1 FF 9E EE 3C 9C 43 84 42 72 CE 3F 27 D7 C3 77
 26 96 DC 93 E3 02 EC AE 13 37 AA 38 FA 90 05 B1
 A0 8B 17 D2 8D BE 14 03 03 DA FD 88 3C ED 59 55
 4A 19 14 4B 09 69 1A 79 60 94 23 B8 09 40 06 1F
 D8 E9 7E 21 01 E1 B3 CC 7C 48 08 7C 1D E8 5F 82
 A5 87 D2 C2 FA B7 AF 68 0C 2D BC 3D B3 22 39 A1
 37 54 04 E9 E0 D1 C6 05 E2 74 9F 3E FD 58 E7 71
 8D E0 88 70 33 04 68 E7 52 53 5A 34 3A CC 65 A9
 62 DB FE EE 58 0C 8B D5 B1 DE B2 55 0A 1B 11 65
 5C BF E5 4E EA D7 5C 91 DE E6 A1 AE BA CB 62 9C
 8C 44 07 C0 92 22 18 CB 4C C8 D5 E6 7D 1E 5F 9E
 40 50 90 CF 90 D5 27 62 70 6E 7A 71 9F 17 13 F9
 1D B1 1E AA 85 AF D7 EE F0 66 8F D6 D1 C9 99 89
 66 3A 7F 3F 38 B4 50 90 5F 71 6E B6 DD 1A D3 A3
 32 58 F4 81 63 C7 7F 6D 81 63 9C 2C 53 51 FE FD
 A1 2F 42 0F 93 F2 C1 9D C7 B2 39 1F 1C AC 1E EA
 EC 61 8A 1B F4 02 83 D5 D3 DF DA 72 37 19 C4 D4
 0D 8C CD C9 D4 CE 4D AA 04 29 30 BA BA A5 E8 FD
 34 29 74 0E C7 F3 14 01 32 30 2F BB D1 38 F3 F1
 BA E2 A3 71 40 12 C3 B9 56 09 62 04 03 9F FD 26
 6F 0F 75 80 9A 95 FA 73 7A F0 7D A0 0A 82 B1 80
 85 D3 8E 56 7D 0D 2A 1A CF 84 E9 08 3E AE 91 0C
 0D C1 17 72 92 19 0A EA 67 2A 2F 67 82 65 2E 11
 8E 04 B9 02 4E C0 E4 17 B1 8D 54 38 AB 0E 93 9E
 5E 88 8B 2B B0 CC AE F4 85 B0 16 91 90 1B 28 37
 4A 0A C5 74 BB D5 8A 6F 81 FF 6F 4C D7 E9 2C D5
 E3 AB EE 3E F7 6D FA FC 2D 07 E9 79 3A 69 37 EC
 8A D0 FF 91 7E 3F D0 5C 06 00 06 F6 1A 00 9D 7C
 98 FC 08 D9 B2 FB F1 4A 30 0F BA DD 8C 08 12 8A
 E6 CC C0 B2 D9 F8 58 55 1A 00 72 82 F1 4D 0B 4E
 88 28 EB A9 CA 76 58 7F 20 15 16 E2 29 83 31 7D
 AF 5F 43 E6 3F 6B 6D 2C FF 97 25 86 2E 6C F7 F1
 4F 8E 89 BD 63 EF C5 8B F3 CF 72 9A AF 58 7F 1D
 1B AB 94 DA 92 00 3F 96 D9 0F B1 A3 B5 25 A9 C6
 56 5B 87 90 B7 FC 2B 82 7D 3F B5 E1 43 42 2C 51
 2C BD 4D 6F B0 04 7C F0 92 31 75 39 50 2C 4F E1
 0C EE 69 1B 10 AD DE 95 D8 19 C4 34 BB DA 78 5D
 75 A0 08 23 27 DE F4 BB 9B EE A2 C2 F5 11 9D 2E
 06 85 FA 76 76 A4 E5 D6 8E 83 38 29 8E 51 2E 6B
 EE 63 2B AF EF DC AB 74 AE B9 2C 3C 68 7D 34 AB
 80 4B CA 9D 81 B7 33 C9 C7 17 3A E2 6E 7D B9 7D
 31 9F 8F 6A 6F 99 86 9A 65 DE 62 C7 2A 3C 47 01
 94 E5 55 83 DA 29 5B 2C 50 72 91 C6 D2 65 67 03
 06 F2 45 4A 0D 6C 14 6E D0 56 C7 CD 86 D7 3B 8C
 07 5E CF 5B 3B 6A F9 1E 68 FD 99 BB 56 29 AD 13
 1B 51 21 A4 D5 BD 6B E9 D7 5C 59 91 81 46 B2 A9
 64 4D 52 B7 B4 BA 52 0A FC 99 8D DF 7F C6 15 FE
 5E 11 02 B4 A5 23 35 56 30 8D 45 AF 03 9A E1 E7
 AF 96 4F 05 7F CE 71 E1 FE CE 8C 44 CF 00 E7 12
 C8 16 5E 55 83 F9 3B 80 94 39 DA 0F E1 4F 1D 50
 54 8B 2E AF 74 B1 CE 83 36 B2 A9 0C CE 19 AC 32
 67 A9 D0 FF F0 72 B7 C2 CD F8 41 33 2C BE 30 C6
 41 F0 8A 63 43 E2 EE 5F 06 43 9E A0 DE 12 FF EB
 64 F9 6D AE 5A DB 54 2B BE 02 3C A4 67 44 AF 9A
 7A 29 18 91 26 1E 06 C8 91 5D FE B9 D2 84 B8 D0
 A2 11 F5 C4 3B 57 AD 8A 0A E5 5B 1C 62 8D A5 1A
 56 E2 F4 2C 6F 7C AA 7F 5C 36 17 58 2B 46 F8 3C
 4A 4B FC B2 F9 10 E9 C2 E0 8C 31 0A 08 DC 5C 21
 F0 4A B5 4A B4 CB 34 01 54 32 8A F3 89 99 50 D4
 5B 81 ED 4B 90 CA E8 12 AD A1 D9 71 74 CA E5 F8
 C5 63 18 B0 89 92 F4 48 AA 82 D1 6C 23 3D 04 CE
 2E 99 AA C6 3F 4F A2 D1 75 6B 2A 00 2E 4F 9E 63
 7F 28 44 E8 5A 95 4E B0 73 6B 85 66 F5 13 A8 60
 B5 08 68 DD 83 66 B0 4D 7B BA 58 96 AA 25 99 1E
 F2 E5 0F E6 5F E0 45 BA DC 64 A4 7B D2 51 55 87
 47 E5 54 31 03 3A 70 97 E9 04 C0 69 04 A5 60 4A
 75 67 0B 7E 53 82 D2 57 84 23 0D 1F 4D F7 C3 06
 E8 4D B6 2C 09 5A FE F2 87 40 C1 E3 3C 87 77 1D
 26 9D A9 7B 91 1F 77 23 A5 A8 1E 5D 26 C9 77 D7
 80 D5 CE 5C FC 70 4F 94 48 BC CC 1E AB C2 01 A6
 27 95 29 6D 51 F7 96 53 E2 61 F0 58 45 1F 0D 47
 DA 53 78 50 65 56 AB 7B C6 B8 56 6D 08 77 D2 73
 80 9A 5A D3 D1 F7 9F 77 1B AA 80 5B 2E 8F CF D0
 2C 14 5E AA 83 9E 9F 9D DE DE 42 0B 05 92 4A 6E
 1C 1E 27 33 3B 4B FC C1 B0 B7 BA 30 E1 93 0D 2A
 9F C8 32 68 9D 9F 9F BD 69 AA 07 34 FB C0 6D 72
 1D 91 20 F2 04 99 EB 42 06 80 13 93 B7 54 F8 54
 48 02 69 BE E2 43 06 20 83 78 91 08 44 C1 3D 07
 F5 82 74 20 46 B5 55 E6 FF 67 8F A2 FD F5 6A D5
 FD 69 EA 50 E6 82 66 20 C1 DF 5D D4 96 C6 D9 3C
 B3 FC 62 05 46 92 93 44 24 E6 E0 83 01 7C BB 76
 52 0B AE 98 CB 47 03 74 06 F0 B5 FD CA EA EC 50
 9F 92 5D 04 0C 98 BB B2 C3 55 D1 CD 24 62 EE B7
 24 3E 66 12 CB 19 D4 3D 83 4F E2 C9 A9 4A 3B 99
 BB 7F 3C FE 17 D7 8E 92 19 A0 70 16 20 6F 5D 46
 2D 31 41 4D C1 9B EA 9C D6 14 6E 4E 3F 5D 9E 52
 A5 05 0B 6D 77 68 7E B2 8A 3B 39 C7 E7 C7 32 63
 93 8F CF 49 D3 89 4D FC A9 89 97 64 FF FB 08 ED
 CC 1B CA 34 FB 39 9F DE 27 E0 30 40 5D 12 86 95
 BD 94 53 23 D9 D0 B7 A7 8D 4E D4 42 3D BC 57 AD
 3E 57 97 54 C2 6F 80 58 E3 6E 43 56 5C 6D 13 A2
 B8 9F 51 76 41 00 EF BD 7E ED 9F FB FE A6 0A 3D
 5C A7 E8 C7 82 02 EA E8 51 B3 25 05 B9 7C A0 1B
 FB D4 2E DC 14 A4 83 9E E1 A8 C4 2A 6E AB 5B 56
 1E 0E D6 81 82 56 86 E5 31 76 30 9C 81 9D D3 15
 78 AB 32 FC 34 EC 50 8D 2B 33 B6 22 B5 DB B2 F3
 44 70 8F 73 BC FD 3E AA 7A DF B2 C0 B0 5C 6E BD
 C5 0E 6F 0D 81 91 32 84 B2 35 2D 72 FB 00 D0 B9
 38 6E 35 F2 49 09 9C 5D 44 E7 6F C0 06 75 FE A6
 17 E3 58 08 09 E4 2A 18 B6 09 EC 14 F5 82 CA A9
 DA 30 45 75 22 8B 03 3B CA 4B 82 CD 91 34 1D 29
 CB 53 67 CE 40 06 98 C6 CB 17 8D 7D A3 53 58 AF
 90 D6 A0 87 D5 E1 70 9E 8C 0A 6C 74 00 6D AC D3
 35 D8 FE BF 9E 66 88 8F 23 58 75 DC 9F F1 0A DC
 21 97 47 89 C0 84 A4 2E B5 F4 12 38 EA 63 17 33
 41 27 8D 95 BE 2E A7 0F 49 39 0D DE 50 BE 1B 38
 0A 06 40 B7 BF 64 B4 8A 95 B0 B9 86 13 8E 2E 10
 1F 3D 60 AB 06 C1 2D 6F 5C 59 34 B3 49 04 06 4C
 FD 2E 42 D4 CA 92 68 8D F9 47 92 BC 1A 6A 50 CE
 AD F3 47 44 C2 3E E7 8E 63 00 F5 BE EE 63 7B CB
 2A EF 28 F3 D3 02 B6 D6 DE 1B D4 AE 1D BE 1C E9
 65 CA CB D0 16 92 9A 98 3D 9C D2 37 D2 8B 18 82
 18 92 2F D8 F7 08 EC 35 31 7D E2 08 24 87 C2 86
 97 65 E5 DE B2 B5 D9 0B AB 0E 9C AE 99 02 26 F6
 5B 11 C3 A5 7E 3D E0 50 31 81 82 BC B1 0A 0C E5
 39 14 A6 2F 42 DD 2E 80 20 2F 2E DF B7 1F 6D 5E
 75 2B 17 A4 1E 20 2A 9A E7 37 EC 63 1C 25 AD F7
 B1 EE 7D 5B 9C AD AC 41 CE B8 FB 38 27 29 1A EE
 FB 7D FA 24 03 12 05 2A 1B 01 D6 A2 12 3B AE A3
 F0 0E FF 4B 65 49 18 FD 62 CB 36 EC B0 65 A5 32
 1B 56 AC 96 C4 4D 4A A2 E6 18 D0 9C F4 E1 77 FF
 03 0E F8 0E 71 59 5D 89 1F 02 0F 7C 04 50 E0 29
 69 93 F2 FC 70 62 67 3E 87 CD 2C 38 F4 05 14 EC
 28 D0 77 8E F6 1A 2E AD 2D 9E 29 91 9D 79 C9 A2
 46 F1 30 8F 02 DD F8 EC 8C 32 23 EC A5 11 6D 52
 D0 1D 4A D3 65 97 89 F8 FD B9 53 C2 39 2D EE 75
 9D CD 5E DC A6 41 CF 34 DB B3 63 54 CD 88 A8 AB
 19 AD A9 DC C7 9E 77 0B 78 9B 4D C8 BC EE DE EE
 F2 5E 56 A9 4C A6 0F 5D 95 64 57 B5 2E AD 93 EF
 55 A0 01 1C 95 4B 91 CA 7A 14 83 EC F4 15 43 99
 C6 27 EC 7A 50 19 5C D0 41 9D C5 39 06 B7 4D FF
 4A 28 77 9B F4 15 D3 88 13 68 46 75 E8 67 82 F0
 0D F7 0B 74 AF 11 1B 7A 1A 9A BF E6 34 F7 A2 E6
 E8 4D 84 DA 62 3A C2 AF 43 4F 08 81 73 2D 44 D4
 7B FF 27 BA C4 FD 19 F7 98 E6 B9 40 9F 7A A9 6D
 12 42 9B D9 21 12 97 21 74 22 CF AC 53 12 7F 61
 D4 87 2D EB CA D7 B6 89 B8 53 9B 07 38 83 58 D5
 AF 56 46 3D 7F D4 5F 78 22 26 CD 3A 42 54 C7 77
 89 BA 3B 00 A9 07 6C A6 02 FE C8 AC 06 4A 87 91
 70 19 48 4F 63 80 3E 70 9D DA B9 2B 17 CB 68 22
 79 DE A2 41 9D 78 E8 7D 56 D9 E0 4E E2 E1 3A 9B
 26 7F FE 66 BA 13 69 1A B4 9D 56 B1 8C 3E A4 E0
 82 A3 1F A9 F0 50 61 60 83 7F BD 2E 31 D3 84 F4
 32 05 D2 D7 B8 9F 6E E1 92 5A 80 DC 4E CE 37 5C
 2C 34 75 86 8D 66 F1 03 E9 45 A4 CC 3C 27 34 DF
 4C F0 82 91 F3 A9 7A 8D A4 19 3D B5 E0 40 86 12
 4A 56 9A 47 2B E8 9E D5 0D 36 FD 80 EA C7 8F 12
 0D 27 DD 24 8D 81 45 F3 A3 AB 3A EC 42 97 44 D4
 B4 34 C7 BF 1F 5A 93 AB 1E 84 04 4F EF 90 47 A9
 DF B8 85 3C 05 F7 A9 8E D9 A0 5A 1E 23 97 AE 02
 38 F0 15 06 5C 29 9C 63 7B AB 8D 93 A7 9A 91 67
 C5 6A 7D 04 90 BA 82 AC 1D 84 E8 88 C9 BA D8 35
 12 C1 C6 1D 9A 45 2D 54 9B 3E 8A 94 A0 7B 64 29
 6B BB C4 EA 2C A3 DB 92 26 13 36 CF 59 34 14 61
 B7 3C 70 0E 7E 50 AB E4 3D 0B 61 E3 91 6C 31 E5
 68 34 B5 89 19 CC 61 E7 27 4B B4 CA 3C 8D 4F 98
 D6 D4 E7 E3 A9 26 19 96 84 1B A1 DD 7E CA 74 1D
 E3 27 06 99 25 EC 74 AF 03 BE 48 16 67 6D 86 03
 43 7F 67 78 73 DC B0 33 7B CC BA 52 64 6B 3A 0A
 F6 E9 B2 F0 E7 04 3E 4D 55 0C FF 79 1B CD 86 F8
 95 52 FD EE 81 F8 7F 4A FB 6A BB 5F D8 66 A9 AE
 70 3B 82 44 91 6B 99 10 90 94 92 C0 2F 94 1E 39
 08 B1 BC 9E A3 5E 53 0F 9F 28 E4 C5 F7 DA 86 5A
 B2 99 5D 99 59 6C 08 90 3C DA A8 26 9B BB 69 70
 BA 9B B1 2B FE 2A 6C CC E7 27 82 18 B0 78 96 C4
 D1 03 EE FE 4C CF 73 F2 BB E8 C4 70 85 92 4A D2
 E6 E2 3C 51 58 A8 DE F9 4D 05 9B 2B B2 5F 98 FA
 AC 39 E2 51 61 F0 FF D3 1D 0E AC 90 89 A2 D5 4A
 12 B7 D6 E6 7E 15 CB A8 85 46 6F E4 2C 3A F5 15
 69 19 FF 4D F3 C4 B7 97 21 B5 55 50 90 28 B3 C6
 27 36 BF F7 0B DF 34 E9 BE F3 16 7A F7 FF 7C 9C
 A8 BB 0D 56 BB 3B 17 49 60 B9 44 36 AE 78 81 9B
 67 BE 57 EC B8 20 D1 E5 B1 6F 5C 9D EB F4 32 F3
 21 45 A2 DF 7C 72 1A 5B F8 25 66 9B CC 17 6F 14
 88 82 46 3A 42 29 4F 74 DE 94 16 25 06 4D E7 1C
 08 18 AB CE 81 9A 53 0F 24 4D 4E 8A 52 3E D0 28
 A9 8F B2 80 19 EF BA 5A 94 5A A6 51 6E CA A6 22
 D8 35 7F 8E 9E 92 A4 42 96 02 68 68 8C 83 C1 F2
 54 E4 46 66 B0 76 89 8F 4A CE FC AA 91 6B A1 F6
 43 D0 FF 04 71 A1 6E E4 4C 92 B7 49 F4 7C 7F 31
 65 13 F7 0C D5 DE 15 B2 27 25 ED A8 12 9C A0 6E
 27 E9 F5 0F E1 08 13 8A F5 06 85 E2 FC 4E 67 9D
 63 90 9C 0B ED 43 22 AF 09 24 A6 6C 8A A7 99 11
 2E AA 0D 6B DD B4 D3 CB 0F 9C AF 38 CC EB AC E6
 E4 84 3D 75 75 DE C9 8C 87 23 84 5B 3F B3 B5 AD
 A8 13 3E 85 CD 23 3C 93 C5 DA AB B8 39 A7 1F 23
 31 F3 0E 02 7A 98 A6 48 E1 3F 60 2F 4B 75 20 91
 BE 55 07 C3 4F FF 66 3D 78 03 BB 24 ED C8 55 19
 54 B0 4B F5 18 31 C9 CD F0 20 7F 79 99 9B FA A5
 B9 D1 C0 E1 65 85 00 A0 E8 50 AB 5B DF 60 DE 84
 0C 98 96 97 5A 75 22 0B FE 42 2A 81 70 0E 0F 62
 78 4A 4C CE 98 68 DD ED 7E 1B 33 A2 C1 60 19 75
 4F 81 DC 4F 74 76 13 F7 6C 8B F4 37 E5 47 D7 D3
 1F 35 8B D7 0C 7C E2 08 D5 E3 29 B0 A9 9B EF 28
 98 83 25 BA 1D 7D 04 ED E6 B1 08 5A 47 F1 07 55
 24 5D 6B 87 E9 E3 87 F1 84 92 4F 2F 05 83 A8 9E
 DF A7 08 C8 0A 33 02 1A 75 D8 D5 56 2B A3 8A 6D
 FA A2 3C 89 E8 BA 00 26 5F 76 FD 47 70 E1 5E 87
 3D A2 0D CD A8 5C 7D 45 18 28 13 95 31 0B B2 5C
 A0 92 DA 44 74 BD 63 3F 8F D3 64 CF A3 85 22 B4
 AB AC CF 2E 2C B0 DB 4C FC E7 9A 86 94 CA E2 99
 40 75 7E B1 BB CC BB 9B 74 1D 03 BF 91 A3 85 42
 44 D9 C4 18 AC 62 7F 38 4D 55 51 5E 59 08 53 34
 BE 34 0E FC 2F 65 86 CB 09 75 C0 19 7C 4C 73 26
 8A 99 5B 20 BE 1A 71 00 A0 52 17 AD B6 31 D4 94
 B5 88 78 83 67 F8 C4 21 F9 A0 90 B7 0F A3 DE 7A
 55 AE E0 45 FD 75 6A 35 C3 6F C3 21 8D 37 18 F1
 B1 1B E1 C8 4B 40 95 D4 C0 83 3E E1 72 B6 51 E4
 AC D1 90 21 55 72 27 0A 64 17 BA A5 D5 19 0B AA
 2C 57 DC F8 A2 EE 70 7A A7 72 D8 C1 66 AE 27 F8
 12 74 8E 28 DF A2 BF 09 D6 57 60 B3 BC A2 47 8E
 B6 08 3F 30 71 E6 6F 79 14 93 04 66 69 F7 61 72
 E6 87 2E 32 5D 6F 30 92 18 7F 91 50 B4 72 F1 33
 09 AF FD 6D 87 5D B5 A1 47 96 91 D4 03 81 B7 C0
 38 19 07 87 1A B8 84 93 B4 0A 6F C0 D7 F8 C8 76
 21 BA 34 59 50 DA B0 5E 71 34 A1 F5 F4 1C 4C 28
 EF F4 1F DC 61 51 75 42 5C 49 6A 3D F3 9B 2F BF
 E7 6F FC 1F E3 D7 2A 30 CA EC 9D F1 43 5B 4E 2C
 AF 34 F5 99 61 05 E6 AF E3 88 FC 66 79 8C FB 08
 19 F9 7A 6D FC 5B A9 BA AE D9 A3 71 7D EA D3 67
 5D F6 DE FE BD 53 CC 7D 2D 5E C9 0A F0 BA 23 1F
 3C 5F EC 8A 1E B0 90 CC A4 59 8D 0D 21 E6 51 A2
 F3 93 78 27 2D CD 26 0C E6 FD 0B 4A BD 5D 57 4E
 1F B9 8D 5B C9 48 0C AB 65 53 E5 1F 0A C6 DC 34
 3D 89 7D 93 78 6E 57 C3 DC C9 30 FE B8 01 D2 86
 03 7D 93 C1 4E A8 E6 8F 61 93 75 7B F1 55 C2 0D
 4C C3 EF 28 67 30 47 3D 5A 9A 52 75 53 BF 97 8E
 CB E3 EE 8D ED 4B F4 E9 C0 75 C3 A4 5D 2F D2 E0
 06 16 34 0B 68 44 D0 63 06 33 DF 91 1C F1 1C B3
 31 06 48 4E 1D 8E DD D7 5D 5B 3E DF B3 08 2F 55
 CD 7E 15 A0 6B 80 C6 0C BE 04 93 55 BF 5E 2F F8
 B6 BF B0 B5 BE 04 20 09 2E FE 9E 20 00 00 AD 24
 AE 0E F5 38 0B 3F 98 08 4A 42 59 B7 A2 28 BE 60
 E5 02 2D AC 23 52 0A 00 98 55 C0 B2 B0 2C 63 A5
 00 01 9F D8 56 48 4B 39 2E E2 A7 D1 1D 6C 5A 87
 E5 B1 CA D8 83 75 7F 71 73 C6 26 4D 0F 2A 33 FC
 6A 3B 65 2C 17 94 54 9F 3B 96 11 2E 1A C7 FC D1
 A3 65 12 02 5C 90 B0 C6 40 63 4B C5 BF 92 72 3B
 22 91 3E DC EE 0B A7 13 C0 00 1C AF 60 74 7C 1C
 D2 73 77 48 0E 19 B3 05 48 ED F6 C9 35 E1 FD 7D
 B9 08 3A DE 09 05 A3 0F 4F 7C 8A BC 7D 77 D7 C5
 49 8C 73 BF 1F E0 1D D3 73 C2 DC E7 0F A5 7E 93
 B5 B1 DB BD E9 2F 6A DC 92 62 23 E2 61 D0 18 BE
 52 83 E3 1D 6E D8 9D 7E 1D F3 76 99 A4 8B E9 65
 E0 91 18 78 FE 08 DB DC F9 6E E2 E8 F7 55 F2 DE
 A6 17 68 64 A8 CB DF 35 DF 15 6B 86 DF AC 18 DA
 91 B2 2A 87 97 59 26 1D B3 38 56 00 8D F4 25 08
 45 5E D2 A0 05 3A D5 2C D8 88 3D 9D BE 85 CC C2
 F1 37 4F CF 71 00 12 82 F7 19 69 A4 FB 1A 46 BA
 2E DC 93 2A D9 CD BD B6 87 7C 4B 32 84 ED 79 7C
 D7 C4 FC 25 83 6A 45 38 FA 5D A2 F7 44 94 E5 80
 3B DD 02 37 AB 74 70 51 92 2D 50 9B 18 D9 F7 5C
 F7 5E 16 3E F3 17 66 8D 24 75 F5 B2 07 A9 CE 75
 A7 FA 66 BF AA 0A D7 88 CB DA B3 E2 03 55 FD 4A
 D2 B0 E1 AC 07 1A FE 98 C0 58 A8 BB B6 4F EE 69
 47 DE 9F 12 09 D5 BA 09 BA D9 4C 62 8F 4B 8D E8
 3D 29 70 A3 79 1A 9B 0F 75 AF B6 99 30 BD D9 D2
 C3 B5 A6 15 36 31 81 8F 20 03 4F 91 84 EE 2F 0F
 F3 A6 8D 0E 15 C2 67 41 87 67 AB B0 9D 7C 2E 15
 6F 4F E4 79 8C E8 34 77 7D EE 89 42 E3 59 8C 36
 1E 15 F5 2D 34 49 0F BF C5 8E AC C3 FE 90 2F 4C
 4D E3 6E 33 30 84 CD D1 FD 09 0E E7 43 A6 07 96
 28 3D F7 E0 87 E3 F9 AB 72 BE 5A 7E 82 1B A2 4E
 64 7A C0 D7 21 06 73 A7 82 A2 1F EE 04 B1 36 C4
 3B DA 82 BE F0 FB 91 C9 72 52 33 E7 46 70 56 73
 A0 A5 1E 91 9B FC C6 37 08 FA 8F D9 B3 C3 0B D8
 55 44 25 BF 87 71 FB F3 F1 CE 3B 94 C7 75 65 8D
 6E C0 72 FA 02 B1 EA 53 89 6F B0 E7 40 87 09 73
 3B C0 0B A6 91 77 50 EA 19 16 E2 5D 3D 18 44 2C
 6B DC 82 D8 81 C7 3E 9D C1 53 06 DA 4B 0C B9 0C
 22 AB D0 45 FF F6 40 8A 4B 71 6E 17 B5 24 67 5E
 8C C1 B1 48 39 D5 C1 F2 72 77 79 3B 16 29 64 C9
 8E BE 55 57 9B 10 CE 72 9E 09 62 81 70 74 0F 0E
 78 5F 48 F4 13 05 0D 93 27 A9 B9 9A DD 3B 47 38
 43 04 B1 39 AF 73 53 0A C6 82 9C 8B 24 CE E6 99
 02 3C CE 58 F7 9C 55 B2 49 32 A6 14 E3 24 9A B7
 62 29 F6 A2 77 D7 65 3D D0 24 BD 7A 44 1E 13 DE
 A6 C1 D0 AC EF E7 44 36 C2 06 50 18 A7 D1 89 9B
 3B 56 C9 AB 22 D8 36 E2 A5 EF 58 B7 86 72 2E 22
 92 31 C1 B9 32 0C 8E A6 4B FB 43 49 A9 04 DF DC
 DB 8D 00 18 D2 02 48 56 59 27 93 1A 41 0A 16 20
 84 18 12 0D EC BB 95 3A 32 27 A9 F5 6C D4 85 79
 59 20 47 5E DD 83 6D B9 DC 78 71 33 30 2C EB 41
 A8 CE 1A 28 F6 95 5B 94 D0 4B E9 C5 50 49 E5 FA
 E3 72 AE E2 F0 05 D5 B0 77 41 2A F0 9D 85 0C E3
 92 94 32 64 0F 81 C6 AE 68 CB 35 48 22 D5 6F 7F
 D9 2B 60 A3 D6 77 13 D0
* End 2334974059 4118800100