* LTspice Encrypted File
* 
* This encrypted file has been supplied by a 3rd
* party vendor that does not wish to publicize
* the technology used to implement this library.
* 
* Permission is granted to use this file for
* simulations but not to reverse engineer its
* contents.
* 
* Begin:
 FC 23 6D 56 97 03 2F BA FE 6B E3 85 44 97 A4 A6
 F2 3B 31 1F 84 5B 6D 21 E3 66 E2 A9 7A 78 50 2D
 88 2A 67 BC 41 BD 23 D4 BC 59 21 6E F6 6A 81 9A
 5E 8A 57 77 0E C1 86 55 4B 6F 5C 07 8E 3B 9C 19
 1C 95 E3 C0 9A D0 99 AA 0C 12 EA F7 A8 48 31 84
 D4 C8 CD 6B E4 C7 67 E7 42 5F 4A 86 68 65 BD 84
 5B EA 48 BF 32 36 5E D4 34 D7 16 52 0E C3 30 27
 CF 6B 35 81 B4 5E 6A 46 62 05 07 2A 34 FC 22 96
 33 1E CF 75 15 A4 C2 1C 05 8C 3E C0 C5 76 84 8C
 D7 2C 22 1C 5E D9 D4 9F 09 C5 4F C8 9E B4 46 ED
 52 96 13 B0 56 B5 46 E4 9B 3E BF 4B 7E B2 9A 8C
 2C BD 22 64 BC AC 81 BB 16 CE 77 60 46 47 DF 4A
 A8 7E 32 F6 7A 82 B7 ED AC BB B2 98 8C B2 66 8E
 04 CE E4 D9 50 FA 99 44 AE 96 84 77 8F DD D0 B0
 FB B3 12 40 41 83 4C 0F BE 29 88 44 1F 52 0F 53
 81 17 99 96 11 AB 3D F2 B3 0D FC 6B F7 B7 DB 36
 F5 29 26 20 34 9A CC C1 5D B3 B7 C8 BB 0A DF 2D
 64 EA FB E3 4C 85 EB C5 4C 0D 01 AC 02 57 D8 E5
 98 A6 61 0E 24 74 3B 5E 34 9A AC 73 C1 06 D5 E3
 61 B9 8E 09 87 22 31 38 18 21 ED 0C 42 CF 58 B0
 FE 35 80 A9 4A DD 9C C7 03 B4 8F F6 8A BC 5E B8
 2C 75 EB 3B 8C 9C 15 EB 90 3C 47 97 EA 5D A2 AD
 93 93 49 34 0F B8 05 9B 5F 5B 7C 94 B2 5F 92 D9
 F3 AB 44 9A 74 2D A6 CA 8B 95 B8 33 A4 DA 6E CC
 76 42 C7 BD 6F 47 5D 44 90 53 D6 5C 65 70 1D 04
 5F B0 75 AA 95 E8 E2 9C E4 77 AF 9B 6C 0E CB FF
 D3 10 01 2D E1 0D 85 DC A0 0F 76 67 7B BE DB B7
 D3 4E 60 14 96 D6 DD BA 5B AC A1 BF BD 7D CD 3B
 05 A3 34 BD 7A 08 A6 43 CB 9C 63 80 EA CC 01 65
 57 98 83 93 BB 27 50 A2 24 7C A2 5E 10 10 94 ED
 AC D0 03 B2 94 44 54 62 78 2F CC 71 8D A8 37 C5
 74 51 75 D1 89 39 33 7B 3A 51 DB 0A E6 2C D1 9D
 F0 6B 19 F4 BE BF 28 17 D6 13 EA 27 55 89 6F 2D
 07 8B A6 33 FD ED 55 15 EE 41 65 97 DE 43 05 80
 BC 25 7A 3B 3F A8 FE F1 B5 2D CD 2C B0 41 F6 25
 D3 5B EB 2B 35 7A 04 E7 CC 6A 31 CD 5A DA 45 E5
 2A 1C 14 F1 15 65 54 00 11 05 02 5C 6B 15 08 96
 F2 49 52 1C 84 CD C8 8D 61 52 6F 97 F4 9C E3 B6
 68 F3 98 1D 51 E1 38 D8 FF 21 1C 4F B1 D5 85 67
 2C 8B E8 69 8A 47 C8 B8 17 B5 5C 45 0E 72 FD BC
 B8 EE 17 13 DB 08 E9 7F 6A E4 7C ED D5 AA 7C 4F
 66 38 91 16 57 21 78 C3 2F EF 7F A6 77 33 7A 33
 77 9C 2C D3 DF DB 03 4B DC 82 C6 3F 1E 11 D8 B0
 7D 7D C9 B8 F0 B5 76 19 B1 61 EB 0C 34 2D 3A 0E
 5F 7A 30 85 DD AF C0 9F AB 0E 00 49 21 0D C5 2A
 46 1C B4 32 C8 49 9E 4E D7 A5 AC E5 66 CC 57 BC
 29 81 94 39 EC 6B F9 93 0B 6F F0 ED 80 72 BF 24
 F9 93 20 E8 92 F0 5C 54 42 06 28 99 E3 65 F8 66
 8F E6 ED 01 80 45 D3 C2 31 A6 76 70 B4 09 44 78
 2B 17 C7 48 5C 20 FD 83 2A CC 48 0A E3 56 7C 41
 EF B9 92 09 F6 CE 35 8E 6C B4 6D 78 D2 24 CC AF
 2D 39 4A 9C 9E 27 EA 30 8F C2 A6 8A B1 67 91 D4
 7B 38 FC 84 74 C2 04 C0 39 C0 8B 2E 08 84 91 CD
 9C E9 03 DE D4 2F 95 9B 05 19 DB AD D1 70 55 1E
 33 E3 1A E0 0D 9D 2C 63 1A 9A C5 53 AD F1 10 63
 E3 48 AE 2A B9 EC DF 95 89 54 DF 26 69 D2 1E 74
 34 1D 48 38 53 C8 3C A0 8E B4 36 EA 14 E5 64 63
 0D 7D F7 10 9E 8B 5A 49 0B 4B DD 27 FF A3 55 CF
 E6 C0 42 64 64 83 D4 30 BA 45 93 AB 8A 1B 0E F8
 03 E1 C4 D7 AE 32 C6 9B 10 A5 66 FD 4C 88 55 F7
 7B 96 B0 B4 DF 01 E9 45 01 76 BE 8F 4F 74 26 1C
 FF 0D BD F5 2D 61 69 83 A5 81 D9 59 B3 53 26 33
 89 95 A0 F5 F2 61 49 4F 37 EE B3 34 69 43 51 21
 CA 4F 31 D0 75 7E 18 00 5C 33 D9 BC 54 32 7B 4B
 4F DD 80 46 0E 54 E6 1A 13 D2 57 FE B2 91 26 58
 C2 40 BD E3 43 C6 C4 AA 5B D0 2C 93 59 41 66 AF
 FC CA 04 08 B7 5F 93 8A 33 5D 85 5A 30 7E 22 BE
 10 9E CA 12 9B 12 65 6E 6B 4E 23 C9 92 06 11 6B
 B1 DA 52 06 E9 C8 BE 13 0F 68 2E 49 43 79 B0 B5
 1A 75 80 15 FA 56 1E FC DB 8A E2 C6 8B 30 C0 CE
 C5 14 8F 98 91 26 FA CB C8 EA C7 B3 BC 0A 8E B0
 34 BA 69 17 26 19 A9 06 8F 3C 44 C4 8C 7F 26 D6
 64 0F EF E7 D6 76 32 FB 1B 35 7E 2F 22 0E C4 50
 FB 50 87 83 09 EB 18 03 BB A5 9D D3 7D 00 46 71
 27 E2 27 FF 07 07 AA 2D 18 76 94 2F 53 8B 2D FA
 4F 0C 3A B9 FD C8 04 F8 D6 78 C3 A0 88 70 29 4F
 37 67 D7 5F 41 C0 5F 3A 37 84 E5 43 11 DC E8 C5
 18 8C B7 C7 D5 22 42 31 B9 97 CE 08 5C 6B F0 65
 B5 78 6B 0B BA 76 CE 6E 04 BF 11 47 D7 FF CF B2
 9A 66 19 99 3E 0C 91 87 11 C0 FB DC 7B 1C 21 D7
 D5 36 A5 A2 DB F0 B8 FE DE E7 C4 AA 96 6B 01 54
 26 13 9A D9 DD 70 A0 77 06 DB 34 A6 1F 40 B8 0C
 CD A7 B1 F4 D7 2F 1F A1 B9 AE C9 7A 05 11 A6 8F
 D0 F6 07 1C 6F 20 AA CE 4C 2E 2F 69 5F 05 FC 96
 64 15 AC 1F 1B 97 F4 70 4F A3 EB E2 3F 84 DE 4E
 F0 FD AD 82 BA 88 97 48 B3 C7 47 05 A3 71 9A EE
 6C 8F EF 73 EE BB 55 28 42 4E B2 BA 6A E6 F7 A3
 94 86 8B 6A F3 E8 86 1B 4F 17 93 8C 4E FC 52 1F
 F8 A4 C6 4F 4D 68 9E 1A E5 13 27 92 4E E0 61 14
 34 1E 1B EB 8E 9C 3D B2 B7 26 D8 C4 A9 80 24 ED
 AA 01 1C 33 90 6B 33 38 52 17 A2 E1 8C F9 10 A8
 D8 86 A1 F2 80 B3 8B EA EC D2 CF 61 FB 33 4A 7B
 D6 26 C0 B7 A9 CE E8 BE 93 34 98 E6 57 74 73 15
 02 1C F0 2D 53 E9 9E 57 61 EF 6E 88 16 D9 88 15
 3A EB 33 DC 00 D7 E7 BE 0E AD F4 F0 7D 3A 2F A2
 95 50 31 02 29 2E 69 4F A1 50 46 B4 C6 19 23 F4
 0D BE 01 13 B6 FB 9F DA 05 FE 69 BE 11 13 94 A9
 DB 16 31 EA DB 40 C7 C9 DB 45 41 24 99 25 A5 DF
 03 07 14 ED 8B B2 75 DD 84 B6 42 81 D0 19 72 E7
 D7 22 4E A7 5E D9 2D AF 70 60 9E A8 DB CC 47 4B
 4E E0 87 C3 E4 18 8E 69 B9 4D 07 D0 35 16 A0 52
 B1 D8 06 07 39 76 72 BC F3 F3 8B C1 D4 92 DC 38
 AE C8 6D B7 A9 DA 24 1A 49 68 BC 02 2F DD 6F 3E
 A3 C6 50 68 6E 8B 4C 7D 87 0F 01 44 D2 1A 9D AF
 87 4F C5 38 B9 5B 2D 64 95 78 FB 7F 89 82 8F AF
 0B 70 19 FD FA 58 AF 4B 57 A5 12 75 9F 4C 7F FE
 52 1F 04 E4 6A 27 39 E0 CD EF B4 6C D5 2C F5 85
 33 7B C3 F4 3B 4A 27 EC A1 CD E4 FC C2 55 9A 91
 DF B1 DC E1 5D 9A B7 99 91 0B E3 75 92 31 AC 54
 81 40 20 F2 EF 86 28 43 CA 25 19 AF FB AE C1 A9
 87 6C 95 70 62 C1 D3 A6 B9 3D 7B 47 39 E0 4E D9
 06 F3 6D 4D C1 5C 18 64 BF 09 67 05 41 9C B1 1C
 D5 C6 69 8F 56 B7 E2 75 94 1B 3F FC 5C 7B 19 89
 83 62 BE 2D FE BB F5 7E F6 69 25 30 21 C0 7D 99
 53 B7 5A E5 0F 85 0F 81 0C 0E E9 98 6A C2 EA 14
 E2 9D CD 0E 60 D8 6B 42 DE 25 EE B2 0D 68 1A 09
 7A 28 20 B8 77 F9 0A 58 27 01 3D 7A 8E ED 8F B5
 F4 F7 45 FA FC A9 EC F0 59 DE 07 76 5B 80 8F 55
 14 8B 88 47 0F A2 44 AD 51 77 0D 4F 42 84 DC B2
 24 16 F9 C6 22 EF B8 FD 5F 5F BB CA 0B BD 24 A8
 54 C5 AB FC 0C 5B 35 61 3B 8F A0 C8 52 9D 0F 55
 7D 91 B4 EC 0F 5F CC C9 E1 A2 29 D9 C6 CB 2F 98
 F8 0F FC 36 C8 F1 41 E3 95 40 37 3F BF FB BE E6
 63 6A 75 1A C3 61 FA FA 92 E2 6A 05 BB A1 79 AE
 34 45 F4 A7 3D 5E 04 7C CC A9 5A 97 47 36 49 5F
 4B 7A 35 93 D8 D0 3A 98 BE C8 47 D4 DD 15 6A 03
 EF A7 E9 A2 77 72 37 5A BA 11 4D 86 66 9E 5A CB
 4F 1D 0A B2 69 67 4C 56 D8 6A A5 49 A3 D5 9A 98
 E3 A6 BB 3C 2B D9 64 63 A8 E1 65 63 A2 8A F0 86
 62 3E 4D F6 7E 15 AD 2A 62 99 2A 8C E9 0B 48 46
 51 03 D4 9B 99 C5 BF 4D 45 6B E5 5C 0C 3E 31 61
 90 CF 02 26 E2 76 9E 4A BE 2D F7 49 41 6B 0E 67
 5D 04 72 CD E7 C1 1C 70 B5 31 58 B0 64 B4 70 95
 F9 5B 72 65 79 6E E6 26 A9 E5 8E F8 30 9F 92 3C
 F0 B5 37 01 5F 35 95 6F 7B F0 69 F0 53 1A C4 5D
 CF 93 2D 1F 13 7F 14 EC 95 3C B4 74 55 5A 96 DE
 B8 EC CD D9 0C B1 9E 65 AA FD 5C ED A5 6C 39 0D
 96 E2 2F 26 AE FB 4C 5E 60 51 35 00 66 E2 58 ED
 BB 8D 55 A7 37 89 35 12 42 32 67 CF A1 E5 34 90
 2C EC 69 B9 85 99 95 3B 14 EB 8C F8 07 22 6F 0A
 2E 03 03 6A 10 30 90 6A 0B 3C 58 32 B7 6D 67 46
 A7 F4 0D 2D 2A 1D 3F F0 D3 5F F5 45 79 2B 65 FD
 D4 3A 88 33 FB F3 8B 38 04 0D 41 9A 97 44 6A DB
 A3 95 84 41 A5 AC 0B E6 37 30 71 00 DA 12 CC 22
 DA CF 81 E9 B2 36 B4 DC 3D A5 F9 34 3B 91 B7 85
 14 BF 16 DB B3 61 47 2B 31 34 69 BE 29 73 7A 10
 25 9B 6C 6A A2 54 8C ED FB 7E B2 D7 7F A8 E5 0C
 B3 17 AE D4 C0 A1 8F 63 1A 8A 3F D4 31 E9 23 60
 EF 83 E4 58 77 45 06 B7 AC C5 46 2F 00 8F 99 A0
 AE 57 76 81 A2 67 0C 86 AA 01 20 25 DE 5A 0D 9A
 59 FD 15 A5 56 B5 A0 5A A3 89 78 40 9C 79 77 E8
 CD 5A E0 27 49 BD 22 DE DA 8D DE 64 0D D0 80 D2
 EC 1F 90 AD 5A D0 2E 0D 7E B7 D0 07 46 19 23 FC
 8B 45 16 E5 C1 6B 5F 1F 71 B5 9C BB 51 27 99 4E
 3A 13 C2 92 73 40 3D 3B FA E7 8A DC AA 91 A6 6A
 1D 26 8E 74 19 AA 1C 4B 98 67 C1 9E D3 14 EC 61
 D9 77 F7 5A 5D 4E 93 89 80 BA A1 9F 59 25 B9 20
 C8 FC 1B 63 99 F8 98 10 5E F0 BC 20 E0 0B E7 2C
 75 94 56 06 FD 44 B1 53 7E 75 62 D1 CD 1A 6F 5D
 04 53 8E 87 6F CB 6B 16 6B 70 19 8A 90 A9 9E 39
 12 8D FD B5 71 CB B2 A8 02 79 73 E0 AC 13 D9 AF
 D8 C1 98 32 55 3A EB 97 AE 27 53 4B 94 23 21 66
 55 81 48 19 D4 EF 0A E0 B8 F0 FE D8 98 4A AB 39
 3B 15 F5 9B 13 7E D7 45 E9 A1 0A 00 4C B9 2F 7D
 9E C0 5A 75 1A 0F 16 6C A9 30 AB 02 14 D3 89 35
 9C A1 B1 0E F7 A7 DD A4 82 19 9C 54 81 DF 89 BA
 9B 52 31 40 8B CB F4 72 F4 65 BC 0B D3 59 19 34
 1D 6E 8E FF BB 5D 53 D1 8C 9B 38 B9 72 E8 93 F1
 4A CC 06 20 DF C1 56 29 FB 2E 4C 1B 9D 55 6B 5F
 9F DC 2B A3 3D 12 A9 1A A8 0A 63 1C 0A A4 2D 8F
 07 E3 3D 82 EF 07 6A 32 64 4F 9A 1D A1 B8 9F DC
 C5 26 61 61 19 EB B6 C7 C7 74 FD 9E 35 FE 45 D2
 29 33 DB D2 48 15 BA F7 D3 AE A5 40 49 4A E8 31
 51 02 2A BB CC D8 76 13 11 37 50 DE E9 9E 5F 91
 20 AD BC 51 E7 DF 5B A3 D8 D2 24 AC B8 37 75 7E
 07 91 71 90 1D D8 0A C9 5D 16 7A 18 4C 27 AD 45
 21 86 CB B1 52 70 1B 74 AB 45 95 9A 6D 2B 54 80
 6A 9E 00 22 DF 61 79 AE A1 42 A0 EA B5 0F 13 C9
 B9 A3 81 66 7A 2C CD 61 2E 6A 64 D4 BA EC FA FD
 75 91 C5 29 D1 D7 B7 7B 8D F0 15 39 F2 E3 6A AC
 FA A5 E0 38 82 2D 7E D5 55 71 7E CA 72 04 35 BC
 D1 A4 2E 11 77 05 FB 06 6A 4B A9 38 FC ED 39 8A
 11 46 E8 74 5A F1 B3 11 F5 92 2E EB 52 8A 5E 27
 9C ED 36 EF 49 6F D7 62 21 84 B0 89 F3 88 79 6F
 F6 84 B8 D3 AD B8 49 0C 72 56 2C C4 08 A2 6D E4
 A7 B8 D3 8D 1B 9A 98 B1 C2 21 77 95 77 D3 C7 C5
 1E 5E CF 11 64 A8 4B E0 7F 86 A6 09 9B EE FA 3B
 8C A4 6F 66 CC C8 C9 F0 AF F7 41 46 D9 0D 3C FD
 02 F1 20 B9 FE 59 17 E3 84 85 9B CB 11 7E 97 97
 F7 FC E6 E8 F7 62 B3 D7 50 E4 69 29 36 D8 AE 56
 60 CE 41 63 93 34 77 95 2D F6 E0 67 43 B6 D6 21
 40 69 B5 2F E3 E7 12 48 E1 B8 8D 48 02 C1 87 3C
 57 7B 41 B7 27 78 D6 05 F5 14 0C 51 57 92 2F 28
 0A 43 EE 48 69 36 5C 8C 43 B6 52 86 92 30 BD 4A
 19 8B EB 5C 3B 81 2E E0 A7 E0 18 B8 74 87 90 B8
 B7 E7 42 1F 14 79 A1 26 4C C9 3D 9B A3 B5 EF CB
 01 EC 15 28 81 30 BE 3F EE C9 06 30 64 D1 F8 07
 6E 34 72 61 E6 9C F9 B3 63 61 AA AE C4 F0 73 1C
 B5 99 92 98 82 2A 35 8E 5F 9E 4D 88 88 C1 F7 BE
 0E E8 58 53 D0 66 38 1F 7B 52 38 15 74 E9 A3 80
 32 C3 DE 1D 66 27 6F 10 F9 DC 55 E2 D1 AC 90 42
 AA 9F 6C D6 B0 0C D4 51 14 86 3F 6C 34 CA BB DE
 E8 29 80 65 D1 57 A8 71 BC F6 88 74 53 E4 5F 41
 64 FF 59 CB 8C BF 02 DA BB 0C 4A 82 48 1D 02 BC
 7D 48 CE F7 2B 77 40 7C B2 F7 CF 78 80 B4 BC D5
 8A 52 71 D7 C4 23 2E EA A7 8A 82 FD 3D AE FB EB
 8E 51 2C 04 69 99 14 00 2A F6 BF 3C E1 5E D4 49
 8A 56 65 5B FD F9 0B 57 25 55 13 C9 67 04 B2 2A
 3B C3 E4 50 A5 81 6B EA 77 F7 19 19 69 E7 33 1C
 70 D7 2C 82 F5 71 9B 26 A6 B7 87 29 49 52 56 E4
 07 7B 65 DB 75 96 18 A3 57 C9 0A AF 61 E1 40 04
 1C 4A B4 08 63 EB 13 5D FF 35 9B 2A 3C 1C 3B 50
 F6 A6 57 9D 66 DB F3 17 F3 60 07 FE A9 1C 33 87
 54 5C AD 5F 69 A7 A8 0B CA 73 07 D1 F9 FF B7 15
 FB 38 7E 2C 54 1D 61 B4 B8 C2 8E 2F B8 F3 8D B5
 CE AF F0 1C AE 5B 76 53 28 24 97 E5 1C D7 38 17
 23 D7 C1 B0 59 27 EF D5 08 9B 83 4A A3 7C 4A 60
 9E ED F4 C2 AC 59 46 8B AB C6 C8 E3 30 CA 4C 7A
 98 0D 23 61 1C A7 CC C9 6A 43 4E E3 04 43 6F 4D
 4A 7E 23 CA 12 09 D9 ED 24 8E 5C 56 22 F3 37 8D
 10 53 F3 8D E7 08 62 54 ED 68 60 71 CF D7 4C 96
 67 CF 06 DD 86 AB 75 C6 8C 0D 74 2E 9F 5F 19 B6
 35 7B F6 35 18 8D 83 B0 38 54 F1 E7 02 02 FA 4B
 04 1F 55 CB B3 3E 0A CC F6 C3 63 09 B6 2D C1 E6
 3F 98 15 DB 44 9A C5 EE E0 91 FC 09 2D CB C9 7F
 4B E0 D6 EE 97 D3 73 BA B3 9C EE 60 1E 04 AE 0B
 67 B4 B5 63 F2 76 89 B6 3D 2E 39 93 E3 73 EE D3
 32 A0 06 AB 38 F6 33 E0 E6 30 3C 4A 67 08 6A CC
 FE B1 E4 66 14 60 FF B3 36 C6 24 71 76 A6 1F AB
 76 2D 79 43 78 AD 33 E9 8C 64 D6 0B 51 50 22 E9
 53 C3 9E 12 AF EF 10 52 71 51 2B 00 05 F3 CB B6
 2B 6D B5 55 BA 6C E8 BD 07 20 58 C3 1A D4 E1 76
 3E D1 5A 66 C7 A9 6A 24 5C B5 EE 13 A5 CA E6 94
 85 80 A3 4F E0 AF C5 83 E0 14 5B E5 13 30 94 6F
 4D 08 16 DD 14 8D 8D 35 25 D5 11 62 26 9F 18 6F
 10 CF DE 9E 8A 5D A6 3E 69 A2 8D 53 31 DC 93 50
 3F 2B 72 72 93 28 07 BD 09 86 A3 86 C1 10 59 1D
 57 48 2C F2 CB D7 2B 61 53 C5 85 33 52 28 78 AE
 48 FD 23 5D 3F D7 3D 7B 4D 80 57 E1 8A 5D DE 1C
 5A DF E9 0E 71 19 72 C6 D5 A4 0E 8B F4 01 5D CB
 4E 39 C3 28 F4 5C 7C 5C 97 93 34 49 D4 EC 1A C3
 B6 CC 06 26 C5 FF 93 00 10 EC CF EB 1B BD 62 09
 0B 8A 5E B4 83 BB DB 94 F0 BB 36 90 10 4C 4F 10
 4C 00 19 09 1E C6 B5 57 EB 7A 86 1D 31 58 94 22
 92 06 49 85 40 74 5A D1 3C 1A 82 51 D5 1E 38 8D
 A6 1D BD 70 F9 CD 04 20 76 9E 5A 6A E1 38 D7 FD
 4B 3E 34 8F 72 DC 23 8D EC 87 4B 40 BE 6A F9 A9
 A9 48 E2 A9 4B BC DA 83 CA 11 08 5D 19 8B CE 40
 97 84 BD 75 C7 A8 AB 51 67 CA 46 2E 51 E9 76 65
 62 3F BC 97 BC F4 80 09 A1 BF 5D C3 70 E8 18 C1
 46 ED 95 5B 1F 21 25 7F 42 46 18 FB 0C 01 3C D0
 BC FC A6 94 D9 79 D6 DC C3 5F CF F4 84 75 A0 4F
 A7 71 FA 15 B4 2E F4 56 B9 67 01 12 DA B4 61 C4
 98 3D BB 07 88 67 ED 78 03 C5 1E C5 CA FC BF 8D
 00 DD C4 9C 49 EC 42 72 28 4C 3C D8 8C C0 4B 24
 FE 1E DE D5 45 64 06 C5 6F B1 23 C7 1D E4 B7 C7
 2A A6 2B FC E1 F5 EC C0 38 D8 C8 22 9F B9 BF 86
 E9 A8 AC 99 34 12 59 BA A6 1B 69 86 6D E3 1A 53
 CB 3E 15 60 4E E6 4E 55 BC D7 A5 E7 49 53 91 D1
 89 79 A4 4A 4B A5 01 86 E0 33 AA 20 BD C9 4C 74
 17 B1 E9 43 EA 12 F1 45 B2 25 07 65 64 60 3E 63
 4F 05 6E 14 FE 13 25 4A 52 7A D5 D3 7F 6A 9B 6C
 E1 22 E2 D2 7D 6F AF B9 A2 DB 68 43 9A C5 EC EF
 7C 24 6B E6 DF 4D 69 9A FE 0E 53 C6 A7 49 40 56
 4C 23 82 12 E4 99 15 99 29 75 B8 4D F5 4C 89 B6
 1B A6 B0 2E DF 38 D3 BF 5C FD 3C 0A D6 0E 81 88
 68 AB 9B 8C F0 BA 15 88 5D 38 5C 73 1E F2 48 34
 48 B6 E6 6F 67 67 20 88 D3 4F 1C AA 59 53 34 26
 A8 35 7A 48 0E 92 6F 1A 53 9A 13 AF 05 01 C4 2E
 1D 4D E9 50 9C E6 04 76 DE 4F FD C9 2B 77 A1 94
 17 56 58 AF 77 25 08 16 11 73 77 C8 BD CA 47 A8
 83 96 B5 C9 E6 93 B7 D3 12 85 38 A1 0C F0 43 59
 48 9F E7 94 C6 CB 21 60 B3 97 98 68 58 EC E1 95
 9A A1 68 52 D7 20 3B 9D E3 4F ED 1A 63 87 D0 CA
 6F 7B D0 9E 31 69 C6 0A D4 B5 B5 99 24 AD E1 26
 DC 30 69 04 E8 B3 97 47 FA 88 51 76 ED 0C 36 2D
 BE 5F E1 36 06 B2 11 3B 68 39 24 64 1E 85 04 8A
 7B B2 C1 B6 5A 95 20 0A C8 62 AF AB 6D 9E 63 04
 C9 00 97 59 8F BA 2C C9 0B 0E 12 16 F2 C8 7D 0D
 F6 E8 7A 01 23 52 E5 E7 34 0C 9C 53 0A 93 5E D0
 43 99 8D 35 CA 56 29 13 9E 3C 91 C7 9E 35 7D 6D
 1A 6E 55 F8 33 24 6F A1 78 74 02 DF DD DE 3E 5E
 AC D4 2D 87 AB A2 2E 53 C7 67 E2 A3 9D A3 6C 6A
 15 09 E2 00 CD EA BD 0A 5C B7 9C 6B DD 30 84 18
 7C E4 A0 E3 CF 83 75 4C 72 52 52 58 50 BC B1 B1
 25 27 C2 33 19 F5 F7 79 D4 66 DF 27 AD 7B 40 06
 70 36 14 E1 6E E0 F0 64 AE E7 38 92 7E 42 2A 98
 BF BB EE 3F EA AA 5A 29 D0 FB 54 43 9D 10 92 4F
 CE 0C 8B 4A 46 31 7A BE DF 2E D7 2F BD 30 88 24
 98 89 45 33 7C CD 27 F5 81 14 48 70 35 A4 9D 38
 C6 C4 8A 79 32 68 FF 4F B2 2A 6C C4 E2 50 4B F1
 E5 89 D5 5E CA F3 58 24 52 CF 28 2F 41 EE 88 E6
 6E A3 FA D7 95 8E 7B AC E8 20 9D 65 EB 53 FF F5
 BD 9D 99 AB 0A E3 FD 27 7A 69 C0 9A FD 2A 31 12
 A0 14 60 DD 0C 25 29 C2 72 32 C2 23 7D B1 31 A7
 39 22 6E 5C 79 7F 94 49 2A 81 8C 46 AE 5C 9E B9
 D4 86 E2 73 31 BC 11 1B C1 6D A3 5A 07 0E FA BC
 03 8D 54 20 35 D9 27 82 6D C4 1A 19 C5 FC BD AF
 3B 06 84 81 6D 03 0A 5A E0 96 04 F5 0C E2 74 44
 71 23 D7 11 EF 35 11 14 C3 7F 40 5E 84 3A ED 95
 65 7B 02 BF 48 35 32 61 60 61 E5 58 35 D5 29 0B
 78 EF 04 9E E4 EA C6 9E 1A B9 75 5C 1C E1 AB B3
 F8 8F C2 B2 79 28 20 96 DE 82 FA 7F 7D A6 A7 59
 FF A3 CE 10 3F 66 CB 19 93 3F C7 87 A0 80 68 AB
 7C FC C5 04 8E B2 F6 86 85 75 DF A9 A6 14 34 13
 59 C2 DD 1E EE 3E 70 B5 8D C4 50 BE C9 48 D3 F4
 94 E5 87 EF D7 E6 BF 9F 74 96 F3 ED D1 DC 1E B1
 33 12 73 05 7D A7 19 D4 F3 3E C3 E4 62 CD 94 63
 B9 D9 DC D5 F4 45 53 4D 79 A3 DD 43 5E 00 2A 11
 66 BC 11 4D CD D4 9B 52 41 EF 82 C0 53 56 AA 88
 B1 C4 C1 42 8E A6 C9 3A 03 59 88 6E 6D A1 FE F6
 E1 54 97 EF E3 4F FD 7D B7 3A 14 9B F6 C2 5A A6
 5A 24 B7 52 2F 14 C2 06 F7 49 A4 A2 48 5C DF C9
 55 DB 9D CC E6 24 D9 F6 80 11 15 70 70 FA 88 0E
 81 74 CF 72 13 D4 E2 2B 06 23 C3 CC 7E C3 FB C7
 DF 33 DD 8E 82 51 71 82 13 B5 C1 35 64 5D 38 FE
 83 7E F7 4E F5 B2 E7 9B C1 22 DD EE 84 65 44 91
 84 36 40 6C 95 84 B6 B3 80 1F 26 38 33 D4 B2 3C
 9C 7B AB ED D6 27 F0 E6 58 00 42 B8 31 5A CF E0
 EE AD AF 50 52 B8 4F 99 4B AB 2F 74 6F 99 DC 96
 24 74 C8 2D 5E 77 D9 24 01 49 95 6B 34 33 97 AF
 D1 FD 84 FD 5A 80 E6 8D 22 D8 B1 DF 14 32 FF D0
 CB CA A6 61 16 CB A3 D7 F7 B1 1E 7B 77 E3 74 97
 AD 11 5B FD D8 CB 75 A7 C6 E1 CD 22 7A EB BB D7
 94 F9 8B 61 B4 99 08 3E 2E 33 82 88 0C D5 CD E7
 6C 69 7A D7 FF 20 E9 00 EA FB 1D 9C DD A9 CC 3D
 C1 CE 4E 3E 2E 1F 05 53 A9 D7 A8 53 D5 ED 2E E9
 33 64 49 97 23 C7 7B F8 20 E1 CE C4 B1 FF 01 F2
 BF 4C C3 97 D1 A6 41 20 85 E6 61 E1 6A EE FA E7
 82 97 75 4E 3E 7A FF 1C 27 18 FD 63 D0 0B 29 A0
 08 E4 FC B0 BA F1 93 28 49 5F F4 BD 66 20 39 C3
 D8 B5 29 CF 67 BC 8D 7D 02 EE D9 58 4D F4 EA D7
 9E 74 53 B3 E5 28 0B 1C BF 3B 97 D8 54 1F 96 3C
 E0 D8 11 02 CC 8D C2 93 86 C1 59 D8 63 F2 CC 40
 C2 B6 1A 64 1B 8B F2 17 32 91 4E 9F C2 2F D6 AD
 82 44 0D CC 47 C8 34 A9 BF 1B E8 F0 12 67 5F 92
 66 E3 7B F6 11 C5 0C 6D 88 74 E5 AE E3 D0 36 73
 B5 4B 85 D4 73 D7 CB 6F 1B 99 6B 13 00 72 9C 7F
 84 55 26 80 AF 77 61 08 30 F2 79 B7 C8 FC 86 24
 CD 35 EF 0A E7 46 FD 0E 18 39 30 46 34 CC 6A AC
 D9 BC DB F0 27 0E DF EF 36 A4 7E 38 F8 00 78 5D
 99 FC E0 C5 6F C6 4D 5B 02 35 86 06 EA B6 2D 53
 5C 7E ED 06 68 A6 2B 92 CF 16 59 0F AC F9 B7 EE
 09 33 3D A3 CF 8B 17 1D C9 DF 8F 8B EE 37 FA 6A
 7B EC 15 BC C8 B9 1E 87 71 A6 AE 97 E7 FE C2 D3
 43 29 DF 38 B0 9B 87 99 02 F5 32 5C BC 44 51 CF
 84 4B BB 48 27 39 B2 2E C4 F0 39 BE 85 2E 18 EC
 B0 E1 18 3F B8 84 FC CC B0 8C 22 2B 6A 47 FC 39
 75 0A CD AB 9A 83 5A 0F B7 39 DF F9 C1 02 2F C3
 CF DA 37 99 14 62 2B E3 62 EE 87 AB 1E ED 9E 06
 82 08 1F AF 34 91 39 1F 6B 35 CE DF 4F 5C D3 81
 1B D9 E6 F8 C8 44 73 12 52 54 2D 0C C5 C1 39 4C
 68 85 C2 69 92 09 F5 61 00 80 56 CA F1 4E 9B 72
 B9 38 B5 4A C9 48 C4 C9 BB CD 40 E6 8D 99 40 E4
 DE 00 F3 CF 29 D6 86 0A 3D 71 30 77 E6 6E 4B 2E
 F1 4C 37 80 34 C5 80 D1 4E EE 8F 46 3E A8 6A 7E
 89 E1 8E 9C BD F5 E6 D2 24 1B 7D 72 FF 00 21 86
 39 52 C4 78 BA 57 12 46 87 E9 DF 4A 38 AF 5B 3E
 67 A0 D3 9E B5 D2 A5 A3 E5 C2 EC 16 9C F7 31 C9
 85 D2 49 48 CF C9 83 37 85 69 F7 11 7B 96 38 2B
 81 DC 3E 9A F7 FC 7B 17 76 D7 AB C2 F1 C9 C9 73
 09 FC D5 1E D5 4B C5 52 BF 58 86 39 2B 92 54 95
 65 3E 0E 09 83 3F 08 78 97 9E 33 70 D6 15 17 22
 89 9F 8F 0E 31 98 3A 17 7F A2 D9 B7 55 DD 6D C2
 74 7E 98 FE CA C1 17 AB 49 34 6C CC 81 0A 6C 51
 F6 FD 9B 7A 1B 5B 1B 64 B8 A1 C1 91 C8 F6 C6 1E
 37 09 50 68 51 9E 2F F8 41 5A 3C 2E 98 C5 74 86
 14 E3 B4 56 6C 07 C1 D4 4D F4 8C 6C 14 9E 33 0E
 DC E1 BF 07 16 F5 6B EA 84 11 0B FD 3B 8C 40 AD
 2A 82 8F 81 3E F9 63 69 5F 0C 4D 3C 54 E7 9E 2F
 8D 0B 0D E6 F5 0C C0 1E 9D 3A 9A 63 B9 BB 1D AF
 82 CA CE 43 D9 F5 65 2B CC 56 8B 14 B4 0F 1C 00
 FB 20 3C A9 CA AC 1C 79 BF 43 E7 21 43 5A 32 BD
 C7 B1 FA E4 73 71 DF F3 22 C6 DA 31 BE 41 59 66
 D7 23 6C CF 45 92 08 38 52 EE DA 5A FF BD 4C 8B
 9B 66 02 90 81 01 9F FC 82 B7 ED 88 B1 A8 9F CD
 B3 EF C4 4C 02 CF EE 4E DE 1A 91 0E C2 8C 2B 10
 AD AC 02 32 F4 BC 6F B5 42 7A FF 79 97 4E EB DF
 D1 4D 9E 51 42 58 FD 64 69 98 9C 8B 04 B5 B0 35
 66 08 35 9B 2B 43 60 2D 87 26 EF 8C 95 75 D2 B6
 5D 59 C3 48 DD A8 9C 6E A9 9D 36 F2 15 0F 79 C8
 13 D7 85 80 41 0F 1A 17 D9 F5 9C 1D 9D BD C6 BB
 62 6C 9B B5 ED 6B 6C 0A 68 14 5B 79 33 AB 50 B4
 7B 1D A9 F6 BC CA EE A7 E4 D9 58 BC 95 51 C7 34
 6C 2B 89 BD E6 50 4F 89 4A 43 FA 2A BB 30 CD B3
 F5 CE 28 28 FD 3A 32 59 B0 C1 84 A1 F8 CA EB 17
 4D AD 92 25 A7 84 35 F8 40 A8 0D ED 6C DD 7A 17
 54 B9 C2 AC 3C EE 41 42 AC E8 E3 C9 F1 78 06 2F
 DC 37 F0 C5 43 36 EA 2C D8 DD 31 FD 3F DB 2F 92
 1D CC AE A3 32 48 B4 97 A0 D4 5B D0 94 FF C8 DD
 71 76 A8 C5 50 EA A3 8B 1D 19 87 82 9B 79 66 E9
 66 1A 12 A8 CC DC D7 6F 23 FE 1E 97 7D 7C B1 8C
 71 55 A7 0B 7F FF 6A 91
* End 1043696247 3884059152