* LTspice Encrypted File
* 
* This encrypted file has been supplied by a 3rd
* party vendor that does not wish to publicize
* the technology used to implement this library.
* 
* Permission is granted to use this file for
* simulations but not to reverse engineer its
* contents.
* 
* Begin:
 89 F4 37 1F 25 A3 FA 67 80 1D 8A 68 5A 5F EA 74
 BA 20 84 71 40 2B 15 9A BB AE A0 64 CB AE E8 22
 AD 69 E4 67 1D 77 08 89 8C 18 05 A7 31 D7 E8 0E
 FB 09 A8 D9 10 54 07 39 D5 2A B7 2D 0A EE 89 74
 8B 72 C9 B6 EB 6C 60 6B FF DC 53 15 D2 CC E3 71
 AE 46 1B 16 E9 D9 45 20 22 A3 93 D8 20 C9 09 05
 AD 5D 70 54 6D 87 4D D8 F1 86 44 A3 DA 75 8F FB
 93 6C 81 C3 BC 46 99 B3 15 5E C1 9B DB 74 D7 A6
 29 96 D8 FC 5D F5 2A 1D 2C F5 51 D1 F4 59 6A 39
 17 62 0A 25 E9 43 DD C1 90 7E 3B 84 1A 97 71 64
 24 C8 C6 EB 93 3A A4 E0 FD 7B DE DB 7D E2 1D C4
 EC B3 CA D6 DC 9C CB 4C E4 3F BC 48 79 76 30 0B
 32 65 CC 8F 1E 4B 6F D7 25 DD F9 80 75 FA 81 C8
 02 05 08 5B D5 B7 BE FA 3C C4 2F 0B 75 80 7B 2F
 2B 60 31 CB 1E D8 9E ED DF 78 DE 0C FA CE 20 46
 40 05 6B D1 DC 97 F0 B4 1F 6E 2C C8 27 36 D7 E3
 57 5C AA CB F6 39 AD 16 A3 F5 88 A9 37 60 A2 56
 D2 09 5D BE AC 76 75 10 74 9C 4A 46 43 9B 33 DF
 BE 1F 89 2D 58 AE 21 88 F2 5E D0 38 7F 29 3D A8
 AE 50 3A EF DD 48 9C FF D3 F1 E8 1A A5 DD 19 7D
 1C 9E B1 46 26 01 9D 55 05 03 6E 18 F5 6B 7D 49
 12 0F 2C 77 38 39 A6 32 F1 F5 C7 A0 D3 31 87 B7
 6A 4E 56 E3 3E 27 F3 6A B7 C8 30 C1 A0 D7 53 4D
 48 DF 79 A9 DB 44 70 02 FF 59 63 F0 A2 28 46 03
 C4 32 36 A4 CA B0 0C 5D 31 43 8F 84 5B A0 44 7A
 68 27 29 90 67 5A 49 E9 EA 3D 9B FB 58 59 4F 38
 95 A4 A0 7B 1C 38 5E 1F 93 31 45 6D D0 30 8E D4
 7F 52 EE 12 23 39 83 AD 6F 61 CD F1 81 25 8A 18
 9E 21 1F 19 CF 23 BC 77 50 36 B4 97 33 53 2F 1C
 D6 4B AE B1 1C 5C F2 18 D2 82 DD 01 BE AF 56 28
 14 4C BA 1D A5 5F 0E BD 02 3E 0E 3A 1C FF BF 49
 53 2D 98 3A E8 17 81 47 2C A4 E0 72 93 B3 57 B0
 5B 99 66 BF DD 25 9F 6F D6 B4 35 BD 7C 22 68 C0
 32 E3 B2 98 69 3E 3D A4 F7 F7 E7 50 CA BE 66 EC
 1A F1 89 BB FB A3 F5 53 5F CC 48 C8 E3 8B 0B 38
 D7 66 3A 7B B1 8C B4 F8 54 4F 2E 93 C1 4C 28 7B
 5D F0 71 44 A7 F3 96 46 62 E0 11 C8 1F 2F 07 2D
 6D 49 9B 72 6C 77 BC 90 56 0C A7 91 04 0B 39 25
 69 9A 6A 98 03 CD 7E 11 42 6B E5 55 18 53 86 D3
 E2 38 69 2B 5A BC 9A 11 B4 7A 89 8F 8D 06 E6 73
 4A 68 F6 94 DF A7 F0 76 67 D7 1D BE 19 BE 91 C2
 91 95 20 8B B8 0A BC 3F 36 35 41 FB 43 93 3C E6
 B0 BD B1 EC C0 64 CA 61 04 15 47 EA FE CF 66 70
 9E 85 23 44 6E DE 3C 6E F5 DE 32 62 97 59 64 50
 BE 4E C3 DD DA C2 B4 D9 91 60 AD 97 0D 5B 81 F3
 A3 93 55 A7 1E A6 B0 8F 4B 16 A0 F4 7F D9 D3 BB
 66 0C B3 8A 7C C2 64 85 0E D2 F1 E0 BF 1A 19 D5
 28 D1 14 D1 AE E5 72 2F 5C C7 18 69 6A 68 07 A4
 AE 19 8C 08 7F E1 2A 32 71 6F CD 1A B6 07 5D 73
 E7 8D 11 63 CC D5 BD 02 F2 02 6C FC 2F F8 A9 7B
 0C C4 34 D2 4A 25 EC 91 EA CC 8D D2 88 2D C0 A1
 15 E1 2B 8A E7 4F AC 1A F5 9E 2E 5E E7 E4 B8 39
 94 E9 FD 34 EE 0B 22 13 60 41 1A 68 CE 93 9F 02
 72 F8 E2 94 88 9A A2 05 99 62 25 6C 03 5B 92 B1
 03 C8 6A CB 88 EA 3E BA 18 96 A4 AA 93 B1 6E 6C
 77 16 B7 0B 1C 01 94 6D EC D6 C6 88 20 ED 45 1E
 92 64 AF 12 55 84 0B 0B FD EB 78 3A B0 85 AB 63
 8C 5F 7E 59 70 3B 85 91 F7 25 C8 1C BD 5F 07 47
 47 17 CE 16 34 9E B9 8A 51 1F 32 EA 54 DE BC 3B
 B0 33 16 99 83 39 19 58 A0 EF AB 3C 39 FA 47 15
 DF D0 C3 A6 1E 20 78 5C 9C 19 91 08 A1 59 BB 1A
 FE 3A 0E 75 E0 76 68 7F E6 B6 AB 71 78 7D 28 8D
 A2 9A 05 0E 13 99 07 F7 65 D4 6F 6E 67 D2 20 DF
 8F 4C D9 76 CB 29 19 CD 6A 8B 14 00 67 39 4E EE
 D2 0C 43 66 1F E6 4A ED 68 4B AF 18 E3 6E E1 10
 56 6F AA 7E C3 E4 DA 1B 19 37 2F 0D 31 40 28 8B
 53 F4 AB D7 DB 5F 12 C1 03 CD D5 87 C4 B3 0F AF
 D5 55 5D 14 B0 1D 3B BE 55 F5 98 5D 51 63 50 8C
 15 78 57 FC 7E 6A C4 9F FB DE B8 BB 5E C7 0A D1
 49 61 3F 64 A5 49 BC D4 56 67 71 C6 65 1E 63 B6
 F1 CE 0F 04 60 70 5C 30 82 7C 05 3B 8A 17 E1 52
 DF 9B 61 DD B1 5C 87 5C C2 85 97 8F 22 95 DD 8E
 A5 91 3B 52 79 E1 A3 7B FB 75 C0 36 BE 66 D5 A5
 D4 09 95 08 60 2E 1B 10 73 92 23 F6 92 15 F4 EA
 2E F6 F5 12 F3 27 12 8E 9F 58 E3 BA C2 7E D2 98
 7F 31 A4 D0 4E F3 69 33 97 25 D2 E6 6F 1A 6A 6F
 CA 8A 4B 6C CB 21 BD 41 19 4D 47 F7 0F 31 22 5A
 D5 B0 9F 95 2E 22 C1 B3 BD 53 27 3A 43 08 7C BE
 6A 67 4D DC A4 DB 89 44 FB 94 87 24 71 8C 33 D7
 D1 A3 D0 53 A3 88 25 29 B4 44 D3 2A 62 36 89 0B
 FD 4B 77 01 79 AE 53 A8 09 66 E6 72 A7 5C E0 9B
 44 11 C8 F7 13 83 4E 53 33 A8 93 68 1F FF 23 36
 AC 99 D0 DA 25 FB 2C 2E 71 75 0F 3B 31 79 69 D5
 BC 72 F3 A0 30 0A 73 03 6A DB DD 43 02 59 B9 0D
 6A 82 DD E8 7B 34 22 D0 C3 B9 4B F9 B1 DA C7 14
 39 96 78 8A A5 3D 12 FA DB 14 86 19 00 28 AD 4E
 37 74 1E 3D ED 67 86 21 8D A1 FB 01 2C 71 D6 8C
 98 70 FD C5 35 DE 62 00 33 2B 11 98 14 F8 D2 82
 F6 FF 3E 94 3C BB 61 86 93 3B 76 E5 C7 E2 4C E3
 D1 5C 10 B6 DF 24 41 F6 31 C1 A5 92 B5 04 70 B8
 CD 89 20 B0 54 43 0F 57 37 C4 DE 65 6C E3 7A FA
 51 4D 33 B3 9F 3E 97 03 47 85 F1 6B 7A 94 AD 30
 EE 73 4A A2 DA 49 FD 22 13 9B 46 9A B5 CF 77 4B
 67 74 7E C6 3B 3A B4 52 9C 7B 35 AA 72 B0 B9 0B
 3E D2 AC CF 45 EA 5B B5 48 4A 02 33 1F C8 71 D4
 9A 9D 80 93 71 04 F4 24 AE 7B 23 22 06 14 05 B5
 64 D9 EE 58 DE 9C 91 1C 2A 62 84 BB C2 95 F4 62
 F4 81 8D D1 48 0F 7D 2A 65 37 9F 50 55 32 6E 9B
 DA 13 7D ED 8C C9 3C 75 CB 9D 6D AD D5 03 1E 3B
 70 E3 2C E1 34 50 E8 36 45 28 09 1A DA 87 3F 94
 C4 99 A0 FF B4 19 C4 66 3C 21 70 37 8A DD E6 29
 44 2E 5C F7 D2 F4 DC A8 F8 DD 7F 81 99 06 CF 31
 CA 9C EE 5C E4 A0 BD 73 C9 91 41 87 5D FF 74 74
 26 85 BA 0F 08 9A 52 51 F0 BC C7 F5 CF C3 4B 7C
 EF 87 8B DE 51 30 DC 0E 14 04 84 83 DB 10 56 36
 05 E5 65 3E 3A 43 C7 05 F1 4B 90 3F 39 FC 27 E9
 43 8D 82 F0 E3 79 0D 10 28 1C D4 42 36 73 F0 9D
 5B C6 4C 2A A9 20 68 8D 9B A4 3E 95 A6 12 2B 03
 A2 F1 B3 EF B6 04 75 36 EE 5E 50 2B 19 02 99 2A
 46 CC 39 ED BA F6 28 F2 5A 45 C2 76 77 7E A5 4F
 0A E8 49 DD D2 C5 BB 60 5A 4B 3A 44 FF F0 B5 9C
 10 B2 E6 06 5F 18 C4 8D 14 86 6C 7A 60 C5 DB 16
 4C 66 F7 F7 15 8D EB 09 FF 63 00 2F E7 C1 E7 C6
 73 30 5D 7D 37 3F 36 58 B1 B4 74 35 D0 81 6C 1C
 9F 05 62 3B 11 3C 21 49 80 6D CA 86 94 EF DE C2
 D3 30 6B BC 6A 97 BF E4 61 6D 2B D0 A2 50 33 E5
 99 67 81 9B 67 AE 04 A5 42 25 B5 2D C3 A3 CF A2
 47 BF 97 92 F7 BA 00 BE 23 41 30 2E EB 91 6D 0B
 1F E0 19 A0 3C C7 A0 1F 74 2D 8A EC 55 8F 4A 79
 BF 41 51 0F CE 6E 15 51 97 7D A1 8F A0 91 E4 60
 DD 95 27 A1 AF 25 9E C1 5B 9F 55 C9 0B F7 C4 E8
 84 F6 9B 4D A6 B9 21 8F 66 E2 EB 72 C3 C3 A3 D2
 D6 0E A9 13 43 A2 C5 C4 F5 4E 49 9C 85 31 8B E8
 DF 4F 72 61 BA 62 87 AD 00 A6 21 80 23 ED 90 74
 94 62 21 76 0A 66 90 41 BD 5F B7 92 55 0A 40 70
 A7 D6 F4 50 2F 6B 05 CF 3A 1A E8 86 7B A8 92 AF
 7A A6 2C 8B 94 B6 37 99 9F 4A 22 05 BE 99 35 41
 3A 59 FC BA 6F A0 32 62 D9 13 0B 2C 61 AC F6 50
 64 FA 0A 24 54 4A 5E 82 92 2A 9C 18 AA C5 84 BC
 4F 06 F8 20 C9 59 50 C1 38 D6 10 76 6D D2 6D 2D
 13 C6 7B 8D 1D 63 80 3F EF 07 61 24 2B 8B 31 C9
 5A 5A CC F4 62 83 63 45 AB 7A 4D 58 BD 15 B8 3A
 3D 5B 86 AB F3 5D E7 4A F4 58 6A F2 26 A9 F5 3C
 97 69 F1 90 32 0C 5E 15 A3 96 21 75 00 E6 09 11
 ED 13 A4 E8 1B 1B AD 0D A1 60 86 15 DA 1C 43 C1
 39 41 B5 20 09 AF 1C B8 F2 78 29 BE FD E6 C1 B4
 3C 7C 10 E0 3A 9C 1D 7E BA 9B CC EC 40 86 FD 1B
 CA 51 F1 6B E2 21 50 D1 D3 C0 90 42 59 84 26 9D
 8D BC 74 6E 1C C0 EC 45 F8 CA 8B 1C F3 C9 4A E9
 D3 63 0F A3 8C 8F 92 89 F6 0E C0 F4 57 B3 B6 D8
 05 59 05 35 17 50 50 E3 A0 83 15 F1 A0 0F B9 BB
 D7 DD 8C A5 2B 68 EA 99 9A AB 2F 00 BF CA 8D 4B
 4E C6 DE CE 1B EE 24 50 1C 70 AE 3A 56 AB AC E4
 CB E9 B5 12 1E BB 3A 2E 9D 27 7A FC 85 B1 73 08
 6E AB 8E 7B 47 65 BC 0F 2D 89 1A 22 ED 08 54 8A
 C9 7F F0 45 69 0B C9 68 F2 96 0E 7F 3B 34 D0 C0
 F8 98 3E 25 2C E3 EF 7B 57 C3 33 64 B7 39 52 98
 84 84 63 EB A1 06 01 1B 19 E0 13 41 96 E5 C9 57
 AB CD 94 55 97 00 07 9A 2C 15 99 A1 4D 92 AB D3
 34 08 1B FF 5C 44 16 9D 8D B2 D6 84 99 CB 84 FF
 97 B1 1A EE 74 17 C7 74 91 5C AC 63 B6 26 EB 1E
 B1 C0 C5 74 1E D6 A3 FE 6F 37 9C BA 88 2A 22 63
 09 A6 E6 A5 5C 53 8C DC B3 03 51 99 B9 5A CC 11
 B2 1A 77 1E 80 EF A4 79 D6 A5 F5 7D 4F 37 5D 28
 24 65 BC C7 55 1F 3F 9E C2 A7 5D A9 2B 81 F1 46
 61 B1 80 D6 12 80 C5 AD 3A D4 38 C8 0E C7 8F BD
 47 3D 77 CB E7 A0 38 0F 4E 87 44 C7 87 39 77 3A
 5B 0D AF 97 8E 0F 66 07 BF 34 3F CA 66 9B 18 A3
 80 76 48 D4 5F 9B EA 75 11 10 01 55 82 D6 5D 85
 37 C7 A1 BE 92 02 DA 17 AC 93 87 D3 EC 12 B8 FC
 67 45 D9 98 17 DC 08 86 65 40 40 4A D1 66 F1 C8
 5F 20 A2 12 1E E4 E0 3E 67 CF FC 2B 22 A8 E4 83
 63 40 AB 42 D2 48 51 D7 F9 4A 8F 91 5F 65 E7 E3
 9D B6 9A 51 7B A5 37 F2 32 17 49 B5 4A 00 26 C1
 F8 85 8F 3F 74 AE 57 46 34 20 06 2A 91 34 D8 7F
 DA 4E 61 FA 9F 79 3C 79 19 49 14 7A 89 70 A9 81
 60 B4 8B 83 7A 12 89 9D A3 0B 08 94 EB 44 66 A6
 F3 D9 B4 81 D1 4A 18 DA AE A8 7A F7 91 F1 0D 7D
 DD CD 98 97 CD 7A 4A EA 70 04 19 00 E3 B7 D2 DC
 A6 AE 3F 6F B8 E7 71 7D D4 88 B1 3F 68 53 CB 17
 D4 6D FC B5 0E D7 38 70 80 B4 11 02 07 1E 7E CB
 DB 67 58 6E 19 44 7E 31 6D 78 92 9F AF 3D 81 CB
 A0 B4 EB 2D 7D 9B 2F D1 F3 7E 7A CB 2A E1 B5 DA
 F3 DD 63 9D 71 AF 69 AE 53 19 30 A8 8F AA 72 BA
 8A D7 EE BF BA 05 71 66 3A 94 3B F2 56 86 1D DC
 18 A9 A1 F1 F9 CE FC 33 8D 03 11 60 63 97 5F 8E
 28 AC C2 B5 0A AE 0A 66 1E A4 A2 39 39 9D 89 A8
 02 6E 70 F4 F5 A3 8C DF 13 FC 39 0A 00 EA 92 92
 3D B4 EF CE 51 48 90 C2 8E 0A FA 1A 7C 0B FD 47
 38 6F F8 9E FE 97 94 56 15 BD 6A 09 55 5F 10 0D
 A9 02 34 CC AC F6 D3 01 57 A2 5D 2B 67 45 16 0B
 AF 0B 3B 48 5C 5C 10 2A 6C AA D4 85 53 D2 FB E8
 06 21 D1 B9 CF 45 8A B3 0E 21 1F 44 EA 34 FA 73
 D2 CC A4 F2 3E 89 ED 14 23 18 F3 73 6C 67 3D 37
 C7 84 6F BC D5 5F 6E AE F4 43 5F 66 D5 CE D5 3B
 44 BB 88 0F F0 1E 17 92 54 B9 1C 0F EB 1B 57 EC
 E9 B7 AE 6D 4F F8 92 57 1E 03 FD F3 17 B9 F5 61
 52 3F 46 51 CF FF 67 AE 2B DA C2 AC 56 60 E9 ED
 01 EC 53 56 EB A6 DC C4 19 C7 B6 60 9C 05 DC BA
 8F C4 17 D3 4E 9B 39 3F 12 F4 2D 66 21 FE B0 53
 A1 38 BE 5B CF 1B 4E 9F FC A4 69 D8 19 35 77 4B
 F6 94 74 06 FC 62 D0 E7 98 D2 8D 23 E6 37 2F 70
 31 43 A8 E7 63 4D 90 40 D4 48 8C 04 3B F7 D8 F3
 EB CC BA 65 29 D0 3B DD 80 0F 1E C0 B0 BF F3 59
 C8 07 CD 35 A7 D1 F9 EF 0C FD 3D 2A 83 22 9E 86
 50 BD B4 85 17 83 D8 1E 2A 8E 6B B9 73 14 1F 7B
 F6 C7 A6 56 E5 4E DD BE D4 AE 85 9B EC 8B 6D F1
 83 00 F3 B3 72 A4 E1 33 B1 E3 81 A3 2A 93 2D CA
 CC 97 17 76 9D A4 42 CD AB 65 E7 4F 65 6E 5E 21
 13 4E 55 AB 6C 76 30 F7 ED 9D 70 8D 2D F7 B4 05
 C5 97 C2 BC 52 84 E5 2F 36 46 79 78 A9 10 B5 B8
 4E B3 CE B3 AC DD 38 8D F8 94 C8 C5 FD B4 3B 41
 14 B3 74 3F 2C A1 05 12 9B 7A 89 DB B8 01 69 11
 9F 2C BF 9C 69 A4 1D F3 16 EA A5 C0 86 31 61 A2
 75 78 CA 95 6B 15 CE 2E 2B FC 8E 44 E7 4F CD 20
 95 08 F8 68 9D 1E D3 B1 A1 96 CB 25 64 99 E0 68
 F7 F0 39 87 B4 FA 27 39 CB 9C 36 C7 23 70 11 19
 A2 94 AE C6 E1 97 0E 7D F0 4C 3E E3 DC 34 29 C0
 AA 5D D5 ED 1E 6A A9 80 96 E7 85 DB 9E E3 3F 6E
 F3 34 68 5E 97 36 F2 27 C3 AF C1 BD 47 E7 B0 00
 9A 0E 02 F4 3A 76 4D 5B 44 61 FB 31 19 E6 14 78
 1D 79 14 50 EF DF 70 6A 25 F4 3C 70 E3 54 59 B0
 0C FB E3 F5 5F C6 C8 87 7A B1 FE C7 A8 A4 C2 B5
 A1 FB 0E 5C 3E 52 B1 FD D0 D7 D2 BE 08 D6 6D 1C
 45 A0 AD 7E 4E 40 2B 84 98 8D 32 21 BD 3E 10 95
 78 BE 90 BD 17 ED 09 0D DC 76 DA 50 B4 46 9C 01
 45 21 F2 C1 51 C9 3A DC 71 4F BD 24 71 88 FD 90
 04 F5 2B C5 E7 9B 64 56 5A 2C 07 7F DA 2E 0A 77
 4F AC 90 8B 77 67 FE F5 57 AD F8 BB D0 AF 1C 74
 E7 E2 A9 70 50 B1 73 53 D2 F4 50 66 BB 1C 05 F8
 52 C9 B2 08 68 46 44 A1 44 CA F4 DC 74 6E A3 F9
 A0 E3 88 1A 7B E6 B5 D7 52 E2 FC 3F 6A 6C 04 B0
 9B D2 7B B8 E8 77 89 36 47 5F 12 3E 8C BE D4 C4
 F9 95 F4 C9 4E DF 9F 7B 16 A8 E4 90 36 79 55 9B
 CA B5 7F 89 B9 23 2E C0 E6 B2 CD E1 52 02 9B B6
 B1 85 98 D6 9C 0E A2 CE 54 35 EF 14 2F 6E B7 FE
 F9 2C 94 6C 21 65 8B 14 E0 F1 EB 36 55 97 E5 DA
 CC AE 9A 3D D2 0D B7 FE 5E FC 4B 78 AE 6E 68 D9
 47 92 D7 53 CC F6 DA 13 40 47 90 D1 9C DB 4B E1
 DD C5 27 47 B0 CB 4E F5 1D 52 5A 4C 3F E2 BA 99
 55 5F 5C AB F1 3B 5B C3 16 43 02 CC F4 9D 83 4D
 60 B8 12 6D 4B 9A AE CA 68 36 65 85 04 E1 3E B2
 2C 2F 75 5D 01 84 CF 24 5C E9 EB B8 29 A8 EF 91
 A4 2C 92 44 79 FF 3C 6F 31 B9 98 9F 1C EA 96 0A
 13 C0 6F 26 FD 7F 38 7A 14 CF 9F 2E A8 83 D2 7B
 91 80 91 24 EA EC CA 93 C8 F3 60 AA B2 0B B1 80
 04 C7 0A 54 AA 16 CD 30 44 EF 0A E5 58 D3 62 1D
 A7 5F 49 FD F4 BC 9E 45 2C BC E2 21 B0 FE D2 66
 A8 8A 0C 43 12 65 EF 8B 7E D8 70 3F C9 E5 A1 DC
 B9 5C 27 93 FC 9E F7 1B F3 90 2A 7F 63 7E F6 83
 CF 41 EC F3 BE B5 84 76 5D F2 CF 9C 35 C2 D0 6C
 9F CC A3 79 69 DB 57 47 77 91 24 01 06 BF F1 90
 DC 67 E0 3F 63 62 4D A2 AC D7 B1 84 31 2F CA FA
 86 29 8A AB 88 B7 B9 77 25 19 AD A4 C0 26 2B 13
 55 A0 89 92 C7 28 88 DF 56 31 D1 81 51 1C 4E 94
 62 23 07 0F BD AC 7C BA 51 A3 73 54 BD 89 4C F8
 0C 9F E4 84 06 BD 1B 10 53 36 84 A1 2B B0 D1 2E
 56 03 D4 7F 6C CF 1A C9 9E 3D ED 39 B6 8F 02 2D
 58 B2 F9 84 92 ED EF E7 54 82 97 BD F7 1C 6F 9C
 8E 42 B2 20 0F 96 80 EB A4 9C 45 0E 8C 8D 2B BC
 2E B3 C2 08 CC 91 61 12 97 9B F6 EB EB 4D 26 5B
 67 71 63 91 4A 77 3E 71 8D FD 37 07 B0 69 FD E8
 4C E2 FE 73 31 16 7A C8 3B 73 90 5B D4 B6 93 ED
 DA 85 72 20 CE 0C 0F C4 7E 48 75 7C FA 7D 12 3C
 D0 3C 74 49 B6 B0 35 58 7B A8 1D 36 0A C6 19 8B
 2B ED 20 87 DF 07 16 87 BD 24 4B 39 12 87 39 78
 6E 2A 9D 56 23 88 6B 5A A4 9D 21 00 63 70 0F 69
 C7 40 37 F3 43 CD 1F 6D 8B E7 EB 23 92 51 BA 39
 BC 9C BE ED 47 5C 58 5E BD EF 4B 9C 17 5B A0 46
 39 84 D2 E1 C2 DB 6C B5 30 BF 65 0E E7 1B 1C 35
 7F 70 CA AB CB F4 62 B1 22 F3 E9 C7 D9 BF 5D 41
 33 F7 B9 16 6B B5 AD D1 B3 B2 AF C7 DA CF 98 BA
 5D 78 86 CB C5 4F 83 67 61 46 62 B4 77 A8 A1 4B
 17 7D 98 B3 10 85 8F B7 BF 9F 1E E6 14 C7 E1 C9
 DF FB BF A6 08 DD E9 25 E8 A6 1A BE AC FE F2 16
 F9 AE F1 D0 C1 B7 F8 65 4F A2 F6 83 57 7E 15 75
 71 F0 39 91 14 73 35 1C D8 31 7B 5F 53 87 80 A4
 16 83 51 CA B3 A8 4D 4A 12 9A 38 F0 31 4D AA C3
 52 C5 74 FD 2C CA B8 3B 5B 2A CE 17 3F E3 CB 43
 C9 E1 59 38 C7 07 10 77 36 70 30 30 37 CF DB 74
 A8 69 B7 A9 E3 7B F9 9E 1A 26 09 64 E0 D1 54 1F
 BF 8B BB 97 E2 1B D6 8D 20 B8 33 39 82 08 84 74
 08 87 3D C5 DF A9 F2 2D B2 04 7D 61 96 53 DF D1
 3B EC 25 44 CC D3 9D E3 46 90 44 1F A9 AF 27 DC
 16 F8 D3 B3 AD 94 4E 35 29 85 B9 F6 DE D8 A9 4E
 30 74 B6 BE 38 7B 76 D4 17 2B A1 D9 3B 49 B4 2B
 76 3A 93 AF D9 45 F3 3F 81 7D C1 6F 96 B1 73 60
 F1 BD 8D 14 2D 98 21 3B 69 FE FB BF 9A F1 67 C8
 78 8F EA 76 5D EF B8 C9 6B 7D 77 9D 86 46 30 D6
 FD D5 ED A1 FA F6 72 8B C3 D2 3F B8 62 55 EF 07
 30 4B 62 75 41 2C 7A 59 74 22 41 6D C7 CD 09 51
 0A FB A1 01 7F CB 3D 69 34 3D EA FA 1A 65 6A 3D
 C9 D6 4C BD FB 58 39 3C 9F C8 11 8A 17 D0 6F 6F
 A8 E4 5B 99 85 16 E7 AD 80 54 D8 01 94 9E CB 76
 01 77 B8 8C F2 9D 78 9E 50 62 22 B4 82 C0 D3 B7
 25 96 A5 B0 C2 2E 43 D8 46 14 91 CF 0D 90 00 CA
 A5 A6 E3 EE 1E EB C3 05 56 01 DE EE 98 03 6F 73
 C1 AE A1 75 77 6E ED 69 42 C9 54 44 F6 6C C3 41
 D0 A2 23 9D FA A4 27 E4 F6 6F ED 50 10 AC 9F FF
 82 9D A1 49 FB 72 1C 18 22 9D BC BE 29 8A 09 72
 DD 4B 04 80 4B BA C8 66 AA 4B A0 AA A7 69 0C 96
 63 74 DD DD 1A CD 2D D4 7D 39 09 40 A7 27 F3 AA
 9F 0B AF 87 E1 14 01 4D 24 FE CE 9D CE 3C 4B 2C
 F1 67 10 7E 19 AD BD 1A 6C 13 D3 3C 21 E1 F4 C1
 7D 09 BB 2F 18 3F FB AC DB 0A 9C 1F 0F 1D 8B 71
 0B 25 BB 79 7E DE 40 7E B5 96 F5 5A EE D8 C6 E0
 FE 28 B3 CC D5 B5 CA 21 1C 77 14 DC 23 74 E5 F4
 34 AD 59 28 45 7B 0B BF EE CD 7D C5 C7 17 B2 C7
 83 11 7A DD 1B 0F 9B AA A4 D5 69 D6 0A E6 97 26
 2F C2 D5 5F CE C4 E0 CA FA E5 23 E0 E5 07 78 05
 63 7A F3 FB 6D BA EA 18 8A 6E 77 E6 60 60 C1 DA
 AA E7 15 20 DA 5A 6D 16 59 46 D3 C6 36 25 BF DD
 48 EC 85 AA FB 71 6D 73 8E 84 1E 83 9D 62 D7 55
 14 AE 09 B4 A4 04 D7 74 A9 E3 BF C6 93 41 D6 56
 D0 8B 0E CC 34 D6 B3 E9 86 37 50 98 32 6F C1 8A
 C2 12 C6 95 61 59 EF 0E A7 BA B0 B2 95 68 00 D9
 9D 5F AF AE AE A5 5E 1C C4 E6 37 41 74 EF E3 58
 4E A8 8A A0 43 0B 9F 06 A7 C3 34 14 82 E1 A1 0B
 21 46 BC 4F 3B 95 8B 57 EA 38 76 C2 D0 37 48 E0
 B5 CB 35 61 4B 3A 56 F7 DC 7F 23 5A 58 0C 25 F1
 8C 90 BB CB 12 25 E2 D5 61 61 70 5B 69 67 2E E9
 4C 39 34 58 2C 96 9D 4C 5B 6F 14 F7 D8 54 DD F1
 32 67 1D F7 21 DF D4 B4 EE 69 E5 92 8F 0A 0B 39
 C9 3B 16 2D 75 11 39 77 66 54 95 E0 67 07 28 4E
 4C DA 5D 28 AA 39 D4 8C B0 8E 57 E6 7E 57 26 FD
 23 CA 98 9F C5 50 67 97 E7 0A 32 A9 A3 0B BA E6
 78 68 15 0A 4F FF C6 6E BA EF DE F0 66 2F F3 59
 32 6D E8 EC 07 E8 AB 46 D7 7F D8 71 0E 48 6D 8F
 E7 B9 E1 8D 88 36 4E 77 D7 61 51 45 C3 FB A9 1A
 91 7C DC 48 99 47 91 24 69 56 A8 AD 62 F1 80 D8
 7A A1 10 7E 1E 75 25 02 76 9D A1 17 8A F6 CD D8
 B5 79 B6 BA F8 80 2B 82 1C D1 8E 3D F4 E4 D6 A8
 B5 70 DD 15 B5 E9 82 9C 25 BA BD 64 0A 22 69 B4
 87 79 45 5C 61 6B D1 8D A8 3F 00 B1 6F 2E 3B 17
 E9 C4 27 2B D2 1C 21 C1 6F 85 9A 15 5A FA 72 54
 58 4B EF 47 9A D5 9D 9C 8A 2B 91 F2 FA DA 2C 22
 6F 19 C1 D0 C3 3D EF 71 81 41 8F A6 EC D1 97 64
 73 43 D2 0C 06 DE 6A 59 15 46 4C D5 48 C5 8A 1A
 20 0F 39 06 DA 0C 87 2E 2A AC AA 25 D0 09 C9 C8
 C9 E7 84 A7 EF 3E 52 A2 8F 56 52 45 3A 93 41 AA
 63 CC 94 46 58 05 E0 2C E2 9D CD 71 4B 10 F4 FD
 00 E8 84 48 C4 44 EB 8E 76 4C 4D B6 E9 0B 6E BF
 73 AE 65 8B 64 30 F2 5A 41 0E C0 48 8A 5E 18 6F
 87 3F 26 4A D1 7D 19 97 58 E6 71 BE 39 22 C8 42
 3E 68 ED EF 95 3D 62 AA CC DB 10 77 76 A2 2D 07
 38 46 2D 89 67 61 BB D9 2E E8 4D 4A C3 4F 91 A2
 20 1D AB 73 CB CD 77 4C 1E 9F FD 01 2B C4 ED BB
 8A 24 A4 3E 25 11 52 1B 70 10 60 DF 1A 30 DA 50
 DF 83 83 F0 CF 0C F4 0D E6 4E FB FC F3 45 A4 E9
 1B 72 A7 A9 D9 92 99 BB DF 13 1D F7 80 6A 66 92
 88 A4 D5 04 C6 D4 70 4A 01 54 D5 8D EF E3 03 99
 4E BD 7B 28 D1 E3 AE 1B 54 CA C8 19 69 43 4E 8C
 F4 36 01 D8 4F 8F CB 7C E0 59 D7 E1 44 59 AE 00
 49 3A 12 93 61 46 84 AB 5B 22 9F 33 9C 2C 30 72
 73 15 FD D8 D3 75 17 10 41 5F 05 CA 19 F2 47 C7
 C5 76 6B 1B A5 A1 51 0D 95 27 8A 74 26 EE DF 30
 84 83 76 A0 9F 9F BF 56 4D 3C 37 14 53 C8 54 D7
 12 FB 0E 4C AD C9 26 B4 3F 65 6B ED E5 08 97 8E
 0E 7E 02 E6 48 2A BD 67 5E 1D 83 44 0C E5 16 26
 5E F3 27 90 40 8F 35 80 A6 4B 73 3F 7C 42 5B B4
 E2 66 E0 29 A2 4C 47 AC AA E3 EA AA 41 04 33 75
 D9 6A E8 DC 87 7A 4B AA 91 D2 54 F1 AD 4A 18 B9
 36 05 9C 62 F3 F8 9D 7C DD E9 A2 88 76 C1 FA DD
 11 8F 3F A6 54 4E 52 07 9D 29 F5 F3 29 5E D8 60
 50 8C 51 DF 7D 43 64 45 9E 33 82 0F 8A 79 B3 E2
 EE B7 14 98 09 FB 9A CD C5 DB D3 EC 55 2D 09 C6
 68 AD BB 9D 2B 46 5E 2A C9 69 33 E0 CC 37 A5 E3
 16 3F 8B 62 93 9A 4A 31 54 06 62 7B BD D0 6E 97
 36 02 57 1B 3D C9 82 3B 16 05 64 82 97 63 D3 EB
 C2 95 97 18 00 25 C9 C1 58 2B E1 52 BC ED A6 A0
 1F 17 FB 7E 4F E1 1E 47 EA 1A 83 A2 7F 54 8C 0C
 46 F0 24 E7 3C 62 3C 00 5C 15 D1 6C 3D D8 B6 E0
 AC 5D 16 ED F8 22 49 7A 23 8E FC A9 93 96 4B E8
 FD 7F 2A 68 D5 A5 0D 08 EF 75 7C 45 A7 EA 0F 52
 DE C1 64 73 7C FF 3F 9D 81 72 27 48 71 5B 3A DC
 C3 5D 02 29 D6 CA F5 48 76 4F 8D AD 77 FE 88 3A
 BF FD 96 FF 84 BB 64 5C 07 19 3C 7E 11 F9 82 FF
 EB C1 4F BC C0 F2 1B FF 37 71 40 DE F5 D7 90 DE
 85 F0 1B D1 8C C6 0A 79 AF 7B 6B 56 78 69 65 0F
 1F 89 71 C6 C9 3A 1B 49 B2 20 71 8E 51 09 CB 4F
 F5 BE 0B 10 0B D3 9A BA DE 12 6C 61 51 81 47 38
 47 2F DC F9 23 06 46 72 4E 4F 3D 7A FD C3 1B 57
 D7 F2 16 6A CE 49 E7 54 D6 0F 3F 4D 64 04 58 8A
 50 1C 90 A5 57 42 D0 B9 40 CB 9D 1D D9 36 F2 CE
 38 3D 5F 56 34 6D 7E 60 35 CE 19 3F 78 ED 08 AE
 68 A7 44 95 C5 FE 22 3C E7 A9 CE DC CA 31 BA 71
 89 F5 2A 19 63 25 0A 23 96 A1 CF 0B 06 88 BF 16
 76 DA 0B AB 9A AA DE 64 B3 40 BC 3D 6B 19 69 BA
 54 FB A7 C0 70 E6 BD A2 F9 0D 1E 36 2F 17 53 B6
 14 26 65 6B BA 9D BF 58 D6 6B 89 4D 1F B5 06 BA
 BB B7 A7 95 D3 B0 4F CB 68 DE 14 CC B9 D7 1C 5C
* End 3881098782 1201973195