* LTspice Encrypted File
* 
* This encrypted file has been supplied by a 3rd
* party vendor that does not wish to publicize
* the technology used to implement this library.
* 
* Permission is granted to use this file for
* simulations but not to reverse engineer its
* contents.
* 
* Begin:
 98 6A 08 D4 28 31 49 12 34 C1 DB 24 5F 46 93 92
 14 5F D5 40 3C FF F2 DB C6 D4 77 C4 DE 0B F7 D0
 AF C2 06 E9 26 FD 07 16 5F F6 E2 BE CF F5 AC 7D
 31 50 1D 7D 89 69 52 E5 1F 7C 69 C9 AE FA 8C EA
 1F 31 AA 74 2E 7F F4 7D 32 C9 85 BC A2 29 A1 2A
 E7 76 90 BB 36 F1 C3 AC 9E 1C 69 01 27 35 75 0F
 4A 93 79 52 01 40 64 3B 65 67 DC 2D EB 18 AB 7E
 DF 93 C7 1A E9 E4 BD 11 9A DE 73 14 7D CF E3 32
 94 A3 6B 98 5B 6B CE 98 05 34 05 E2 7F 99 CE A0
 62 4F 95 77 87 E6 E5 1D 36 44 0B 4B 0C 95 1B 59
 4C 3F 62 10 72 CB 0E FD EC 79 16 24 B1 FB 92 10
 62 43 6D B4 0E 71 8D 79 B2 B2 2F EA B2 76 C4 BB
 9D F5 FC 16 9E 74 C8 4E C4 1C F8 9A 98 E0 31 2C
 0E DD 9D 73 48 0F 00 5C 13 2E 4E 37 B1 E7 6D 00
 48 8C 00 F0 D7 8F E4 48 43 94 C4 67 AC 32 15 FC
 29 B2 B9 77 3B 83 00 03 67 53 58 93 49 D4 40 90
 60 8D 23 D1 E4 96 22 12 9E C7 7D D4 6D 4F 4B 9C
 BF DB B9 E4 3A B7 6C B2 C2 C8 19 A7 9B 64 9B 82
 A7 36 A2 95 1F 81 E2 4A 47 FA F6 50 06 79 F9 EA
 AA 2E F9 8D A3 43 20 71 F5 41 BA 30 EF 47 F0 CE
 D3 4C 0C 5B 95 33 0B 7D BB EA A0 C9 CC 96 1F 72
 C2 D4 BB 21 05 4C 67 32 E9 EC 88 9B 55 28 C4 76
 AF 15 E3 C3 82 FB EB 5B 4B 33 4A 3E B1 F4 1E 0C
 8C 09 C0 3F 12 D3 5D A0 2D F7 38 23 2D 6F 5C 1F
 51 9B E1 F9 6E 1A D2 16 93 AA C4 52 58 DE A7 F1
 4C 53 AD 01 72 EA AC EC F9 A6 8C FA 9D 8F 4C BE
 F4 81 B4 AF E2 D6 50 9C 30 A6 8A 39 E6 D8 CC 6B
 B7 72 17 CC D2 16 A0 26 A7 A2 E5 44 55 C0 FE 7A
 D6 33 D0 DB 13 F3 58 2F AF FE 1A 14 B8 87 1F 41
 25 68 06 F0 A0 D8 38 CE FB 95 08 62 09 A3 89 CB
 0A 2E 1B F1 73 62 10 AE 14 36 4B 27 52 DE 36 65
 11 3C 70 51 45 A9 65 7F 43 10 93 23 5F 4B 9B 7D
 56 1F 64 54 E4 ED E7 B7 FB 32 2D 3D FB 5E 3C B6
 7C B5 6E F4 28 BC 77 17 83 35 B9 7A FB B5 3F 6F
 E7 9C C1 C7 61 63 C8 B2 61 A2 DA 16 10 59 50 98
 1B 10 5E 15 4C 41 0D A5 63 61 5C 98 C2 71 13 87
 D2 8B 74 7D 8C 8F 97 B5 C2 36 49 98 E9 07 21 C9
 79 6E 82 CF A5 B3 56 85 1B B7 F0 B5 9D 2E 9C 81
 21 4C 2F 05 90 44 04 F9 34 26 F6 89 E4 19 F9 FC
 36 C7 B5 7B 4A FD 22 C2 3F D3 10 4D 86 A9 EB 7F
 5C 4D D2 73 4C ED 49 40 05 11 1B DD C1 5E FF C1
 18 20 52 55 AB FD 03 F5 F7 43 EB 04 CC D1 DC 7D
 1C 04 29 BF 73 FA 8B 3B 91 B3 5C 48 7F 82 46 0B
 EC DA BF 66 4D E4 F6 A6 0B EF EB 63 9E 9E D0 38
 FD 1A A7 06 FB 0B 9B AA 57 E3 BD 4C 5D D8 56 9B
 CB 8A 51 CF 3B F2 F9 5F D3 F6 AC D4 43 01 1F 6F
 EB 07 DC BD 4A 98 FC 56 92 51 47 E6 14 45 A0 35
 3D ED 7E 48 D1 E1 2B 24 C0 5D 1B D6 73 57 FB F3
 17 09 F6 EB 57 98 6A 9D 8D 45 84 34 D0 ED 55 89
 3D 67 7D 9C 4F 31 B4 D9 76 17 C0 2C F2 AE 86 F1
 08 2E A7 64 67 2D 46 C5 F9 09 14 FD 2B 78 9B 9B
 C6 55 04 CD E1 A9 9C 50 2C C5 42 B1 C5 B9 DF F2
 8D 5E A6 E7 C0 E7 10 A2 32 3D 7C AC 67 2F AD 78
 04 18 67 70 E1 59 8C FF 0A B6 17 E1 21 A0 0B AD
 BE 9E 31 D4 2D 29 9C AC 80 14 A6 87 A0 D5 A2 D6
 67 BA D6 02 82 EF E9 33 83 20 E0 CA 72 26 B7 0B
 B2 A4 D0 60 F7 75 21 8A D6 55 4B 13 0C 75 09 B7
 0E D9 E6 4D 6A 7F C3 68 37 5E 3B 2F F4 B2 3B 5B
 E0 BC 24 FA B6 76 D4 5E DA C6 3D 0A 65 7C 10 93
 95 2B CA F2 A8 A8 E5 48 1F 09 CB 6E FF BE AB 19
 9A 3B BB AF D9 74 CF 83 F3 C3 4D F9 3C 7B BE E1
 26 96 94 26 7A B6 BE 42 C5 84 AA DE 2C F4 D8 FB
 F6 01 D4 01 7F 92 D0 4A AA AC 86 B5 2F 99 88 F8
 89 A0 E2 86 06 7F 7E 0C E8 92 EE AF A9 4E 3B 86
 EB 45 31 64 BE DB F7 E5 AB 58 9E D7 BD E5 7F 14
 BB FC CA F2 D0 0E 74 D4 A1 5B 66 37 D0 D4 9E 1B
 68 2C 3A 67 D1 DB CA 34 2D 4E D7 AA 17 74 28 B2
 04 D9 9C F8 1D 6B CF 3F AD 00 0D 3E 90 2B A0 6F
 11 E1 59 31 2D FF E1 3B FF F7 05 8E F5 35 0B 81
 5E B0 64 76 4E 5A 39 AF 58 2F A9 A0 51 F6 93 BE
 46 8A 87 34 6B BB E8 2E 99 9B 7B F4 2B 79 9D 25
 51 6B 09 B1 0A 37 59 F1 99 B6 4E 76 43 32 64 B9
 85 A1 75 87 89 15 4A 09 BD CE 28 93 EF 99 B3 C2
 A5 3D 0F 18 6A 60 AD A0 B1 B3 14 69 DF DB EB 9B
 CF 32 20 DA AC 78 C8 27 F0 6D 76 55 00 6A F3 E9
 E7 B7 6E D2 6A 1E 39 35 BA E7 FF 19 D1 A9 7B ED
 67 10 50 1B E1 D6 6E 01 0D E4 55 6E AB 3E 66 BF
 A6 F3 10 0F D6 BC 88 03 C2 64 94 89 31 4E C5 65
 57 CB 74 94 A1 BF 6C A2 05 44 22 B6 F5 8B E0 4D
 E0 96 18 1A 4A 51 A6 33 01 93 40 E8 03 7C 28 25
 A8 7A 8A F7 92 8F FE FB CD 3A 12 76 5B D5 58 DE
 09 4B F6 C2 78 80 E9 AC 79 C1 3D A9 9E 96 36 A7
 27 99 DB C6 14 6C 81 19 F7 82 04 0D B8 DD 9A BF
 02 E3 A8 0E 0B 12 5B F2 20 4B 61 CA 2A E7 1B 12
 1D 72 1E 53 AF 27 31 EF 6C 0F 5C B5 33 DB AA A2
 73 33 57 21 4E 14 CA 40 37 CF 5D 27 98 F2 34 09
 AE B9 E2 0A 80 AF 67 02 55 68 F5 3A 96 EE B3 6D
 78 47 DE 7D 5B 70 7D B2 F2 A5 69 03 F7 F1 C8 7A
 AF 7E 04 C5 C6 2C C0 83 84 01 A2 C5 4B 2B 18 6F
 C2 BD 04 DF 62 C4 57 34 EA 12 F1 2F 01 CD 87 5B
 87 08 4E D4 3F AF 91 72 38 B1 07 DD 4B 97 8A 2C
 42 1E EC E7 3D 15 AE BD E2 39 57 8F CC B4 E9 9D
 1C 0B BE D4 48 E0 5B 63 B4 7B C0 AD 30 30 26 D0
 F4 6E 7B B0 C8 81 1B 6A 8B 15 0E 30 8E 04 96 6F
 90 B0 3C DF 9B E3 86 4C 78 D8 CF 14 2D 21 52 57
 6D 50 62 EE 77 E2 6D 82 AE 6A CB 76 8F ED 05 D3
 0C 09 86 0B 8D 22 0B 9F 6A 32 C1 DC 2D 68 21 41
 63 AF BF E6 73 70 C9 2C 5C 82 5A E7 C0 F8 EE 33
 FE 01 F1 3E 49 3C CA 58 DD ED 5E 10 C1 57 E7 DD
 1B 80 81 29 CE 1E 96 E8 91 1A F9 33 F0 08 37 49
 0C 6F FA DF BA 7F 3F 48 7C 8A 70 72 84 0F 86 3A
 B3 CF 08 B5 AC AC CE 03 43 F2 6B FA 6D 3F 92 8F
 A1 47 A8 A0 D2 BD 7B 5A 5D 90 F2 2D F8 B1 7C 9D
 00 B3 0D 3E FB 5B 48 59 9F 95 6B 91 91 46 2C 9B
 6D 30 C2 7A 85 5C C8 AE 5B 04 90 D0 B5 BF 69 4E
 4F 32 FC EE 5F DB 5D 1B 47 5C 4A F5 05 0B 5D F4
 14 99 E1 D6 DD 17 32 77 A5 D0 A1 28 2D 77 43 92
 23 7C 61 51 56 89 89 11 C4 F1 D0 13 5B 22 DD D2
 0B 83 FA DE BA D1 C4 DD 79 1A 5A 8F 1D 84 3F 67
 6E 6E 0F 1E D1 EE 12 5B 94 EB 9E 55 39 CE EA 6B
 45 B7 85 7D FD 53 77 55 70 39 05 F3 A0 B7 E1 15
 22 A4 7F 7A D3 C9 3E AD E2 5F 34 B9 08 95 05 A8
 2C 22 5D 9F CF E6 9C 04 00 44 76 F5 D4 76 83 71
 4E 44 E5 3C C8 B1 78 96 F9 98 21 F1 AD 24 2C 91
 8B C3 CD 04 6B 1C FE 11 D1 C7 D3 47 01 86 8E F3
 BF 0E 8C 00 34 50 4C EA ED FD 03 12 BB 1F 91 90
 B2 20 60 D1 84 D9 5B 1E 5A 6E 79 93 F1 42 32 4E
 1A 2C 6B AF 15 7C C6 D1 59 09 C5 88 A6 50 E0 F9
 B5 FE 9A 4C 9E 34 A4 64 BC 46 B6 27 1A 57 8F F0
 BB 8B 17 97 19 31 24 FD E7 A1 33 5F DB 0C 7C 2E
 F1 CA 9B 5E B6 0C 6E 79 1F 48 59 CE 08 DF 1E C8
 33 1A 88 C2 21 7E DB DB 57 E1 DA F7 B4 D4 83 6E
 1D FF 5C 7B C4 BB E6 F4 70 C3 72 AF C6 91 AD AC
 23 FC 6B 19 2B 73 3B 07 CE 2B 91 47 FA 5F 1E 38
 50 E4 A4 34 EB 2B 30 2B 32 2B AF DB CC 6F 3A 5F
 47 69 DC 05 2C 7E 6B 8D 0A CA 5C 5B 9C DD 22 86
 B7 85 26 EC 74 DD B1 AB 71 BA E1 ED F9 BB E1 2F
 C5 F8 1F 29 84 59 93 44 62 1A 8A 6D 46 EA 8F 5C
 FB CB B8 ED EB 90 DA 73 BB D9 80 12 EC E7 EB AD
 3C D7 7D 9C 8F 16 6E 3B 87 E0 1E 1A 9F 1E EE 8F
 8E 93 E4 88 71 FC EA BC C3 E5 04 DB 1A E1 9B F9
 E5 C9 B5 67 4D 21 49 8D 0F F8 07 41 0C 4B 60 6E
 EB 47 25 F3 97 A3 0D CE 7C F6 C5 82 5D 68 36 2A
 CA D9 74 BD 73 C8 C6 FE 00 F2 72 D3 28 00 25 50
 CA DF BE D3 1F 58 57 5F D3 8A 2A 64 CB 56 CD 36
 A1 C8 79 36 20 4B 8E C5 78 B1 B8 79 E2 5A 3A AB
 7A 8F 5C BA D3 B3 3B 75 80 E3 3D 2C 8A A5 24 9F
 1E E2 44 1A 24 81 DC 21 78 8E CD E8 AD 92 80 2B
 8B 7F 69 3B DE 0E 9E D6 BE 14 43 84 A3 A8 0B F1
 46 3B C5 9C 16 B3 E8 F4 6B C8 7B 52 D8 0C 44 44
 A5 DA 4E B7 89 AD 31 F5 5E D7 6E A7 C0 4F F7 B1
 17 35 8B A2 27 92 C0 44 2C 55 8A 00 51 60 35 22
 5C 2F 53 FC 04 D9 56 AE 24 4E 13 A0 4A A1 DA 00
 45 99 1B 62 A2 19 59 14 62 D8 E5 CA 86 D6 5F 60
 66 29 26 CE B9 3E 16 74 4F 38 1A 93 39 04 79 B8
 92 5A 4D 16 6A 03 A7 E6 B4 C1 15 E5 89 4D 40 53
 33 47 B5 E7 04 16 CE 9D 36 96 42 4F DB 1F FC 95
 08 61 21 3A 1E 0E 5B 06 BF 8E 42 85 11 9C 5C 5A
 71 C5 A9 B5 1F A4 EF 38 81 AD A7 10 77 28 FF 56
 52 B4 6B 52 B6 48 FF F0 98 6D EC 87 8A BC 91 FA
 66 5D 60 B0 8C 15 50 A1 95 1C 50 20 55 FA C3 90
 5E 05 E2 AD B1 FB 56 47 5E 20 CA 64 89 57 E5 D5
 1A F9 40 2C C4 9A 44 60 98 DE 1D 4E BF 36 CB 9C
 6A D3 90 F7 FD 49 79 DB 9B B8 20 B9 5F 9E D8 9A
 13 5D 05 81 5D D6 A7 A4 EC AC 42 CD 01 E3 94 B1
 6D A5 33 AB 04 63 9E 9C 08 7E 80 9B 21 CB 4A DE
 57 8B 22 7A 2A 96 3C 13 42 4A 70 91 C9 17 D8 D7
 E1 75 63 A4 B5 3C 9D 69 A9 F9 C2 67 18 25 E5 0F
 F2 D4 AC 13 13 EE 15 E2 A9 65 AB 19 25 CD 61 E3
 6F ED 02 5D FD EF 5D A7 22 7C 15 08 8E 83 C0 5C
 B1 B3 44 AE F2 98 18 7A 30 A8 94 60 E1 D4 3F 06
 F5 75 0E F9 E9 30 16 BF 40 FF B0 D2 B2 A7 41 5C
 EE 61 49 3D 51 A9 B5 8C 98 52 6D 4F 6E B7 BB B2
 26 59 66 31 E3 0A 5B 09 42 35 1C FE B8 47 86 76
 07 9F 16 B1 EF FF 96 47 9C EE B8 F2 59 91 94 FD
 DB E8 BE 50 B5 F8 B5 A7 81 62 D3 02 03 B2 8B 5D
 E4 EB 26 8B E1 82 4A DF 7B D7 D3 63 C7 12 21 8F
 65 8A AC 4C 54 1E EC EE BE D0 44 82 23 4B 16 9D
 77 8F 7F BE F1 A5 AC 64 DD D3 10 AF 39 31 9B DF
 6E F5 D9 78 7B 43 24 A6 8A AD B7 C9 5A EC CA 35
 4C 4D 95 24 A2 F2 0F 8C 2E 0C E5 6C 88 01 74 6C
 51 1A 88 E8 B0 95 9A 80 56 52 FE 33 B7 3A C0 57
 29 11 AE CE 9E D5 E7 0B DF 3D 5A F1 8D 3D 82 D1
 18 2A 39 64 63 81 A1 2A 82 6D EE 96 11 47 C0 62
 87 47 46 54 4F 9D 9A 56 E8 C9 61 4B CF 85 27 8F
 A4 52 0C 63 8A 95 A3 BE F5 53 05 DD 18 61 FA 5A
 B3 CC 8D A1 93 FA FF BB 45 8E 78 0B AE 90 B7 5C
 A1 ED 64 F7 66 57 1C D9 15 6F C7 19 9C BA 36 63
 11 D7 FD 37 7F 62 87 F7 82 A7 0F A9 E8 08 34 DA
 9B D7 8D 66 D3 85 A9 38 1D E5 E8 25 B2 6C 3C CE
 46 DE 23 7D DE 63 02 7A D7 26 E0 B0 3D 1A 2C A2
 8A 11 B6 A0 98 88 93 EE 5F 21 B1 E6 51 F1 22 B7
 36 57 12 DE 33 28 AC 89 20 F1 C0 E2 21 72 DA DE
 E5 55 8F 94 E8 5C 7F 8F 17 85 1B 6A 61 4D D9 01
 86 16 CD CC 09 F3 BB 99 F8 7F C6 2F B8 70 AB B4
 18 51 AB 46 BB 03 30 AF C1 DC 8C F8 24 4E F6 EF
 3D 2F D4 B1 A9 0F ED 36 15 2F FA 02 AA 98 63 1E
 36 06 A9 F5 CD AA 67 02 49 EF AC B0 B4 56 79 89
 F9 48 20 96 F4 61 91 08 02 97 B6 1C 61 D3 E0 A5
 86 9F 5A 95 7D 08 07 44 25 76 12 5C 23 61 62 8C
 F7 F2 F2 FB D5 34 FC 8F EE F6 CB B4 AF 5D DF 96
 76 9F 20 68 89 22 62 4B 68 3C 0C BF 87 21 CB D1
 BB 7B A4 C7 AC 04 A0 0E 07 F2 A2 C6 8A 6E 0C 2B
 D3 C9 D2 8C 0C 12 98 0F FF 87 CA B7 EF 54 21 D7
 AA CE 9C 55 45 2E 0C 85 2B 83 19 99 5E 8F FB 64
 B2 AF 3E 38 A2 A3 59 D0 82 2E 7C C9 DF 77 6A 27
 AF 51 56 20 99 E3 EB FD 48 85 03 08 F5 02 64 D2
 D0 BD AF 42 AB F9 5B 5F C5 7C FC D5 07 92 2C 72
 04 71 FE 15 7E 80 A2 88 74 B2 41 93 30 BA 2E F4
 CD 08 F2 87 2F 7E 5B A6 0C E8 16 96 E4 F1 12 CD
 AC 97 51 B4 BC F5 3F 31 89 6D 1E EB D0 7E F2 A5
 9C 7D 28 EC 64 B5 8F A7 91 88 54 DC FF AE 56 52
 6B B9 E7 4C 41 E6 80 33 E8 5A C2 00 6C 81 76 AD
 18 5F 5C 30 1A 8C 6C 12 D9 E9 78 6A 63 EC BC 4C
 A1 40 4F E4 F0 12 2D 65 69 B6 9B 72 15 36 B8 9D
 E6 FB BF 0A 99 2C 0B 61 4D 40 82 CB 5B F5 16 22
 E3 FC 7D 05 CE 93 AD 15 70 EB 48 43 66 47 9B 97
 D8 52 97 08 47 C1 AC 8F 04 7A B4 57 4F D2 52 95
 77 FE DD DE 6C B8 78 D9 28 B9 F9 A3 EB EF 89 CF
 2B 93 62 75 4E 9E 12 34 4C 30 86 9F 75 18 4B 48
 7E 09 43 B4 82 3E 2B 3D 81 D1 27 34 1F FC C0 AB
 AC 62 D0 9A 47 AD FC 82 7C 89 37 13 FD BE 34 90
 75 32 BE 2E 98 88 A1 12 FB 9E B3 44 79 38 21 E8
 35 AC 7E AC B4 31 B5 71 83 27 BD DF 3E 23 DF 6A
 F5 DA 74 E4 5C 2D 02 57 7F 3A 5F 50 F5 E1 FB 4C
 AD DF D1 B7 50 10 06 36 F9 E4 66 5A 3F 96 06 79
 D9 B6 43 AF 86 9D 10 27 00 1C 9B EA 5C 11 67 2D
 E3 9E 69 D1 D7 96 BE 5B 87 7F CE F4 57 EE 7A AA
 7F 19 F5 1C 8D C8 90 5D 3B 36 B1 F7 C5 F0 DE 27
 69 A7 9B 03 2C BB 39 EF 2C AC 63 A1 99 F0 30 75
 7F BF E3 90 4F 08 40 68 9D 0C 94 80 97 65 5C BF
 31 35 EE FA 34 96 F9 D1 FD F0 E1 64 1C 4E BA 5F
 60 A7 0D 11 77 A9 9D BA 52 79 63 62 C2 8C 70 C7
 B6 57 A0 B7 A9 92 22 B5 B8 7B 23 5E E1 2B C0 66
 CC 49 74 59 73 38 6D C0 4E BE 7B 81 87 A3 6C C8
 C7 7F 84 A0 4A 5C D0 B0 20 1F BF AF AC FF EC B9
 FC 24 25 47 4C DF 8F 3C 87 BD 41 B6 37 31 AC 97
 69 06 D6 4A 79 32 67 BF DF CA 88 65 48 F3 86 82
 87 EC 9C 6B 89 71 8E FE 08 4C A2 C2 B6 81 CC 81
 4F 95 9F 9D 31 70 54 03 6D 77 BF 3A 3E 9B 73 BD
 D1 2E 84 DC 80 22 0E 5C AA 97 ED D3 0B 99 67 97
 A9 5C 4B FF 9E EA 6F CD 65 08 0E 00 2E 9D 7C B9
 96 9E 1B 79 36 2F 70 68 B9 5D 0A 37 AB 5F 0A BB
 D2 2B F7 D4 20 ED BF DB 6D EF 61 AE AB F0 37 7C
 DF B9 C5 DE 93 8D 23 83 EC A1 B5 82 C8 9C 27 90
 86 98 5C 80 9B 5F 8A 8C 85 C1 1F FC C6 F8 91 D8
 A1 B7 D3 2B 18 6E 50 67 01 4C FD E1 E8 85 51 CE
 63 C2 8A 89 5C 0C 25 EA 8C CF 80 FF 33 22 55 E9
 38 1D 76 47 92 36 2E A9 B2 D4 4B 57 53 25 F7 B9
 CD A5 16 41 4E BD CE DE 4D E3 31 61 AC D2 20 89
 56 08 A5 F4 FB 37 40 D6 14 37 97 D3 4C 2B 5E 8E
 05 21 6C 8E 3A 54 72 06 CE F3 AD 4E B9 B7 94 85
 B0 83 BE 82 F1 4C E7 35 E4 7B 1C 69 E2 62 ED 15
 8A B2 26 F3 77 52 FD 5F C9 ED AF F4 36 1D 47 4B
 A5 80 47 F5 E1 A5 E8 B8 9C A4 8E AC 00 79 49 B0
 B9 94 7F D6 82 F2 18 5A C6 E4 AB E8 82 94 F2 22
 75 FF 40 D8 53 8D A5 0B E5 AB 47 8F 07 B2 2A B7
 9F 35 73 9B E3 26 B3 87 DC 94 DD 7A 55 F4 28 09
 F0 07 DB 3B 4A AD 99 F4 0A E5 52 DF 02 1F 42 9C
 4C 7C 99 2F A9 61 3A C5 D5 FD EF EF 4F 86 4C 75
 42 FE E9 F8 C0 F0 64 DE FD 36 E8 53 31 4E 57 B0
 A3 46 F7 9B 3E 0D D3 F7 65 47 85 DE 6E 0D C9 98
 CE 24 FB 87 5E A3 75 14 7B 02 5D 38 B9 9D 02 D7
 25 3A 65 3E 68 4E 04 39 A7 84 73 CB 10 C2 A7 FA
 A8 56 F3 1A 7C 9B 77 56 4F 8D 71 4B DE 15 A7 8D
 F7 9B 48 D1 D6 6E 5E 61 EA BE 49 B7 F5 26 B9 0B
 F1 46 18 95 FC 76 AB 72 9A C1 53 92 44 4F 56 F6
 37 E7 0E 1E E1 19 4D 9E E6 9D C0 15 02 43 AF 73
 D1 75 6B 8B DD 55 DE 84 1A 8B EF 00 34 A2 AF 45
 EE EF 40 2D 5F 1D 05 27 7D 5A EA 66 23 BF D0 74
 C7 93 A3 FB C2 04 77 C9 B3 E0 10 F3 8E 8E F6 22
 0B 8E 22 72 D0 C5 A9 AD AA 9E 32 19 B8 3F 1B 5A
 FA AE 7D 99 25 C3 0B B1 58 F0 AC A3 0A D5 D0 72
 AB AC 9E 4E F8 B0 92 51 39 33 F0 05 04 CE 38 63
 A0 A9 A7 FF AB B5 5D 27 2B 8E 4E F2 24 D8 32 00
 0C DB C4 7A 2D 33 FF C0 DF 0F 6D 75 26 48 DC FB
 9A FB 99 63 91 5B 6C 43 C6 DD E5 15 0A 18 86 A4
 E3 8B 0E 93 B9 1A 84 79 48 20 AA C8 AA E0 75 7D
 14 52 23 98 89 12 5E 91 4E 07 16 5B 12 DA 41 30
 C5 69 9B 5A 76 51 F5 3E D0 84 05 31 88 EE 94 F2
 E9 29 DF B3 D1 DE 31 E7 AD 81 63 97 7F 5E 3A D6
 44 E6 AD DC 53 82 93 6C 3C CA 68 51 3E 02 C8 4C
 85 C7 A9 C9 0B 40 E0 9E BE 14 0A F4 2D B5 4D 99
 F3 E6 C1 92 03 2E C4 FA AA 64 8E C3 9C 54 1D F8
 50 BD C5 08 51 76 E8 08 91 E2 78 9A 72 CA EF 13
 F6 57 37 A9 AC 01 2F 31 FE 6E A1 F3 E1 DC B0 7F
 6A 48 AE F8 A2 1D BE AB CE AD 77 B6 07 0D A1 C0
 AC 17 47 DB 5C B5 4F 60 17 ED EA 4B 6F 0B 93 9D
 25 C7 A4 61 C6 EA E8 A9 75 38 51 95 B2 58 A9 C7
 32 F6 DD 0D 06 DE B4 76 AA 5B F7 D5 E5 AC 13 3D
 F2 DC 8A 82 4B 73 08 1D 91 C9 32 4E 1E 2F 35 DB
 7A 91 09 B8 2E 58 EE AC 47 6F 65 F3 B0 D1 1E 50
 5E 59 05 4E B0 7A 0D C9 43 56 1A 98 2A BB E9 A6
 BB 87 D3 41 1D C6 9C CA 6E 48 4A F6 6A 1D 95 FA
 FB A4 10 26 DE 59 5E 45 A0 27 03 08 A1 4C 65 D4
 60 11 32 B7 8E 1D F7 C6 0C A8 4B 10 A6 43 35 DA
 AA 97 A9 33 42 34 78 C3 2E AA A5 69 3B 7D EB B2
 5E BC 1C AA DD 20 02 BA 0D D6 09 54 5D CB 16 9C
 A5 28 2E 5C 44 80 21 85 3F 64 00 D3 3E 02 E7 28
 D7 B9 34 25 F9 C5 BA 56 DB 91 0B 13 3B 85 CE 96
 74 48 4F 64 16 DC E2 14 42 DC 89 12 C7 8B E2 84
 BD 2E 0B A2 A9 FA 11 EA DD 84 6F FF C6 EB 7C FF
 AC 3C 3E 54 02 A6 9C 72 2B 7C 51 18 77 79 00 1F
 B1 5D C4 12 C5 3E 4B 14 C2 5F 32 87 4F 17 25 2F
 A5 CE 45 8C 76 EF 06 B3 62 41 16 2B 3F 4B A9 CD
 52 D5 82 04 2A 7D 14 25 A5 FB E7 D1 52 83 5E 3E
 94 4E CB EE 25 AE 93 44 62 34 A8 75 5F 9E 23 8D
 A9 7B 15 C3 86 BD E3 77 9D 8D ED 90 01 28 09 45
 5A 1C 5B F8 D0 44 92 2F 2C A4 8B 5F 41 C6 C1 89
 B8 8A 73 DA F9 70 7D 1D 84 E8 6A DA 7C 0B 78 07
 11 8A 83 04 B3 BD 75 90 7A CC DF D1 D6 0F 9D D3
 DF 9E CA 50 12 3B 21 3A 65 19 E3 00 21 70 38 94
 74 5C 62 01 62 02 56 96 6B DB 1F 4E AE 62 03 27
 D8 7A A2 31 CF 57 BD 58 80 A2 25 2D EF 56 E3 40
 28 C8 89 23 13 E0 7C 0E 99 95 05 58 CA 1A BA 5C
 AF 5B 1F 6F 2A A5 C3 A8 5F 86 75 2D 57 36 04 26
 F0 EB 21 E1 FA 85 E0 14 79 0B 47 90 F0 22 19 9A
 A7 6D 4A 5E 1D 45 03 7D D4 92 6A B8 06 CD DF D2
 4B 9C 27 71 3D 59 E5 30 F8 94 75 0A CD 72 65 BB
 35 84 6C BC 74 2B 8D 2D 26 41 8E C6 25 B0 2B 86
 7C D9 8E 25 36 8D 8B 7E 84 82 A5 EB 46 6E 98 51
 C0 1E D9 7C 4A B5 10 30 99 A1 16 91 7E 9A 12 E1
 06 EF 4B C6 80 8D E8 22 74 4B 1B BC 28 F0 A3 A6
 47 A1 71 02 D6 08 34 4E 6A 78 E9 60 D3 FE D7 09
 BE 49 8E 87 CF 68 C8 F5 D4 E1 2A 3A 37 CE F0 77
 29 C0 36 83 44 B4 46 AA E4 75 13 B8 50 33 7D 98
 41 0A C2 61 FB 69 4B FB 9E E1 A5 D2 FD CF 80 73
 4A 0E C7 A2 6C C4 CD 09 83 AD 4E 2D 38 B1 D3 79
 FC DC 38 15 27 04 7A 30 0F FC F6 E5 E7 7D 86 2D
 DB A9 63 ED 96 87 6C 8A CB 6D 39 1D 65 A4 E9 2D
 15 19 CC 01 C6 E9 00 D6 D9 69 1E 4E 3F 64 2C 89
 F7 0D D8 47 7E 19 B5 82 C6 17 94 E1 31 6F BF 16
 AE FF 89 50 1F EB FE 13 B5 75 4E CB D6 67 5A 2F
 5F E4 51 3D 62 CA 65 2A 43 B3 10 B5 A0 08 B5 46
 6E 79 C1 AB 76 2F D1 4B 71 F9 E0 E3 4E 73 43 D9
 D2 22 69 1B 71 2C E5 65 CD ED DC 06 39 E1 0A F1
 04 4E E2 B6 E6 84 7F 8B 70 CE 82 F1 F5 4C B3 3E
 EA 57 3D 5A BA D8 C2 02 8C BE 62 C6 D4 34 C7 CE
 49 F4 26 77 56 A6 F1 BA 7D 45 FA 5C 61 F9 D9 CB
 A8 80 44 28 33 37 9C 51 C6 08 27 7E 94 0D F3 DF
 00 EA 23 FE A2 F3 C0 36 39 99 12 A6 21 18 CE CF
 EC CE 11 E7 DD 58 3B 17 98 DC 63 F1 36 71 D1 AE
 50 D9 23 9A FC 5F CD A5 5A 80 B8 5E 14 BA C0 31
 81 12 0A A5 89 2B CB 2B E4 E7 D2 0C 18 7C 48 72
 F5 08 98 55 38 D9 32 52 1C 4B 48 22 D8 96 78 6D
 4E B2 4E 7F E3 95 48 90 1D F1 79 2C 51 E3 15 C3
 85 AB 15 E6 25 D2 17 78 76 69 87 35 31 DA 13 DD
 7B 68 1A 16 E2 3D 36 79 2F 0D 25 2B 5B EB AF 59
 00 63 A2 55 A3 69 F8 4C 66 99 A2 14 68 93 D0 CD
 B0 83 27 53 C0 1D 3D 92 DF CA DF A3 8B A8 64 C5
 F8 90 87 7D 1D 9A BE 0C 29 B8 A4 40 AF A9 38 4B
 A9 2C 9A BF 1B 70 4B 78 8C 94 8B E2 A1 FE AF 9F
 DE 13 13 BA 4A B5 C5 80 05 52 BE 9B 80 72 40 AD
 57 FA 75 BE 4E DC 7D 7D 0B 9B C8 53 51 5F EE 2B
 DE 51 1F B0 DC 1A 31 F0 0E E5 44 2D 02 2C 6A 09
 80 5C A4 93 B2 3E 1C AA 34 41 28 3E 53 03 2B EB
 B4 C4 36 4E D4 57 E1 5E 24 FE 13 8A 90 F3 EC B2
 BF A0 F4 A9 B7 12 74 83 76 37 52 1C F4 72 FB 84
 8F 49 2B 60 D1 5D 10 5C DC 08 09 00 B6 9E 85 D4
 6B 4C D0 A3 FD 43 CF 57 7F 62 02 BE 0A CB AB 48
 DF 60 06 1D B7 C4 AA A0 C4 F9 55 97 87 48 2F 2E
 43 3D 51 D4 9E 8C F1 CE AD FE 1A 51 BB 81 51 96
 A0 3C 29 58 88 74 A5 E5 F6 8C 9B 27 E8 B5 92 AF
 4B 63 D4 91 DF 4F 25 FF AC F2 69 B1 7D F6 0D 7D
 7A 7A DE F6 82 87 92 C4 0D BF DB C3 4C 2A 4D B8
 2B 88 44 FE A5 0D 0E 0B B1 10 3E F6 BA 1C A4 0A
 41 1B B7 6D 11 3C 87 F8 8F 11 BD C1 34 9B 3F 9A
 96 32 D4 70 DA 98 C8 19 C6 75 8D 97 AE 9E 41 11
 3F 91 01 2A D8 D1 A8 48 C9 F7 DA 9F BA 04 57 32
 43 1C EC DB 13 31 0F 85 3E 89 1F DE EF 50 DF 59
 47 79 15 87 1F 37 08 1D 2B EA 82 9C 10 5E 5A E2
 59 8A 1A 31 B6 01 3E C9 98 BF 0D A0 B4 1F 80 C8
 75 E2 A8 21 86 10 87 27 55 62 3A 0C 2F 7E 5E 1F
 73 AA 74 DF 6B 24 36 94 98 D4 4B 2D 2E B3 7E 33
 44 F0 4A 64 5C 2A 01 04 F0 E4 B1 23 99 0F AD 03
 32 12 96 23 42 16 0A 68 30 76 67 0C 07 7D 5B D3
 B7 6F 88 25 B0 6A 56 FF 6F F9 BE F6 89 57 BF A3
 C9 DC E4 29 13 B1 68 2A B8 61 D7 C4 B2 C8 FE 47
 D0 AB 82 B8 93 70 FD F1 AA A3 C8 13 56 36 D6 C6
 A8 4F 4D 4F AD 78 ED 7E 38 D4 8C E1 99 06 30 E2
 5B CA 42 CE 7B 9D F6 B6 D9 D6 76 D7 AD 6B B8 B3
 62 3B FC 8B 33 27 F0 3D C8 52 EE 8B 1C F0 A6 23
 70 66 0F 69 6E 42 28 C8 C4 F8 0E 41 36 69 98 E9
 A5 FE E6 1F DD A0 2F 45 98 D0 D7 72 BA 6B 82 CD
 ED 49 0B FE AB BA 71 D7 8E E0 DC CF 07 79 49 39
 5D AF 1F FE E5 3A 31 5B 9B 81 5E A6 86 EF A9 B3
 A6 2D 7B D7 A3 8E 3C 07 42 60 4F 86 47 1A F1 A4
 94 14 5B E4 2E 8C 81 E0 BF 0C F5 6A C4 98 1A 16
 9D AC 97 73 B6 7A 86 85 CB A5 56 6F EC AE B6 9C
 49 E9 BB 90 15 1A 6D AB 28 6B 1A 2A DB E3 FD 2D
 EF 36 1D 2F A1 15 E6 EB F8 66 D7 CA 5A FD 1B EF
 97 3D 6E 8D EE 06 C9 8A B1 51 E0 2D 63 E6 4E AD
 78 2F 1F 9F 74 79 A6 61
* End 3094952080 1688595067