* LTspice Encrypted File
* 
* This encrypted file has been supplied by a 3rd
* party vendor that does not wish to publicize
* the technology used to implement this library.
* 
* Permission is granted to use this file for
* simulations but not to reverse engineer its
* contents.
* 
* Begin:
 8A 1E C3 C4 B9 66 E1 1B B2 DF 59 0E 3F 85 47 E0
 0A 34 91 C6 E2 0A 79 13 BB ED 2C 11 8D 9E 25 6D
 4E EB DD 94 1B 31 38 A0 03 9D 55 5A BB 44 F7 4B
 2B B9 99 75 50 2C 7C B5 92 91 E8 93 3A 51 00 DB
 E9 36 6A D2 79 68 DB D8 8D DE 5A 26 E8 4D B4 6B
 B8 39 C3 1B DA 1C 63 A0 01 68 1A 51 F2 1A DC 56
 6D 4F 06 82 40 B0 D7 8C 24 E3 6B 3B CF 94 23 40
 CD D2 56 35 D0 00 46 67 57 F8 76 90 B4 D7 5D 33
 83 5D EB E9 0E 09 22 0A 49 DE 52 86 8D 09 D9 37
 30 86 49 AB 38 CF A7 60 98 77 61 45 4F F1 2B 98
 5D 41 E1 BB 3C D4 91 46 3E A8 72 85 15 C6 F4 5A
 C0 42 45 12 1C 72 98 78 67 FD 46 E3 DA 33 55 12
 FB 6B C4 08 FF F3 A7 9D 10 72 FF 44 CD 31 F0 5E
 4C 7C 8A CB 25 67 77 F0 B9 A5 42 C8 E4 BB 72 4E
 AE 9A D3 08 D7 A3 0F 40 1C C4 4C 6C 7A 5C 35 BF
 43 78 BE DC 59 4D C9 56 59 D8 A3 5D 29 5F 35 A5
 4B 03 0D ED 0C 91 B0 E7 E8 0B 1A 63 5F D9 16 68
 3F 98 77 B1 6B 8B 07 A3 B1 4A BF E3 4A CD EE FE
 1C 51 71 95 DF 6F 79 20 D3 A6 3E C9 AD DB 9A B9
 EE 14 2F A8 F0 A2 9A FB 2A D8 BC 5E FE 19 C1 DC
 F0 B0 C3 1A 72 6B 16 D9 64 B5 53 56 E1 0C 7C C8
 0B 7A BA 8F 67 EC D8 50 10 51 86 4D 78 6D 75 45
 31 EB A0 44 3A 6E 83 D7 BC 64 6A 9B C7 70 98 F3
 41 48 DD 7D F2 CC 3E 9A 1F BE 55 19 7C 58 5C 6D
 48 14 C9 B1 D7 49 F0 FE 8A 60 04 82 EC 60 2A 7C
 CC A8 18 DB 0E B6 25 03 F7 11 D5 28 A8 AF 59 33
 C3 11 8B E0 61 71 C3 4C 30 9A C5 60 67 E0 8D BC
 4F D9 D8 91 EC DC CC 4C 65 76 10 1A FD 31 99 B6
 4F 6F 44 8A 14 BD 88 B9 0C 2B 8A 00 61 CA 0E DC
 B5 2C 3F EC A5 11 BD 4F 8C 74 A2 D1 9F 52 13 84
 E9 A3 A8 5F 96 49 DA 51 D7 77 44 15 02 77 87 CC
 29 B6 79 99 2D DD 29 07 4D BF D2 E9 44 5A 2D FC
 90 15 36 78 A3 87 11 48 E3 A4 88 03 5E 0C C4 FC
 A9 AF E8 18 4D 2C CD 89 F6 91 09 62 A9 A8 A6 7B
 4D 27 6F AE 91 1E 43 1F 27 0D AB 2F 11 13 8F 7C
 A4 54 CF 92 A6 E4 B4 87 18 CF 6C B9 7E 20 41 A9
 B6 01 1D FB 58 14 50 06 B4 68 EA 14 48 B7 66 00
 F9 BC EF 54 B9 3B B8 F1 73 99 DA 82 64 90 EE CC
 F5 D9 D6 F5 F4 38 E3 D1 F5 8E FA 66 F7 5E 60 07
 F2 D0 63 57 3F D2 1D FE 96 D4 4C 51 ED 88 70 CA
 7F B6 8D 11 45 A5 2D C3 6F 02 3E 19 57 30 04 B0
 99 71 60 F1 97 0C 32 60 F6 32 B5 E8 7C F0 20 4F
 44 73 42 8E 31 69 FA CC AB 75 60 D8 18 E3 CB D9
 BF 96 B0 37 C6 28 48 B8 7D E2 0A F8 C7 0D FA B1
 7F 6E 91 0E 89 F3 28 A0 7B 47 A7 25 8C 74 A4 01
 C6 F3 7C E8 23 0D 27 56 2A A0 4D 3B 8B 61 92 07
 86 3A AA 4A 3F 0E AB 76 0A F2 C9 CC 19 D3 25 72
 B0 52 43 10 C1 18 2B 02 9C 8B DA 0D 02 16 4A 55
 35 DE D3 2F CD 40 2A 10 3F 64 91 BB 8F 21 AE 32
 72 49 D2 C8 54 C2 44 FF D3 4A F5 B3 73 41 A3 45
 8F 05 4A F2 A2 73 91 76 2F DA 6A D1 9B BB 87 CB
 7E 84 63 AF A2 A8 BA 6B 70 6E 42 99 C3 C8 3E CA
 E3 F6 26 8F 64 C1 21 BA 24 03 2B 7A 66 93 4A AD
 7E 32 7C 07 63 C9 E8 31 F9 FF 30 13 2A 48 99 E7
 74 5F D9 1E 75 E8 03 A5 7F DC 11 C7 3A 8F A4 F3
 F7 57 D2 55 90 11 D7 68 87 50 97 74 51 8A 7C 9C
 7D 70 87 98 D1 90 4A D1 BD 95 0D 84 72 FE C5 0C
 E1 81 B0 3A 9C 8E 63 CD D1 7B E2 55 74 66 1E F5
 7E 71 78 41 28 7D 13 D9 87 6D 28 69 5D A7 42 7B
 14 8C 7C 30 E6 52 C3 47 8D E2 D3 C7 BE 4D A4 89
 BB 25 23 0E 59 1A 87 61 8D 97 7E 0F 50 B3 81 67
 95 08 64 8F B6 CD 0A 5A 85 9C 33 6E 7A DD 37 4A
 7C 1D B3 2D BB C1 24 3F F3 92 CB 93 B6 9F E7 C1
 5C B7 F2 B6 71 E8 02 A9 DA EF FC 44 DD 57 FB 7D
 E9 52 ED A4 69 67 65 5B 36 A5 9A 2B 18 41 1D 99
 BB 63 46 E2 DD 15 09 A0 67 C9 5F D6 5E 12 11 CF
 1F 55 2C CD F0 30 BC F1 8E 81 DD 06 04 65 1E 73
 D6 3B 4B 23 0D 3E A4 87 DE 6D 39 A0 5D 4D E0 57
 4F 81 53 7F AC 9A 0B 6F D8 27 14 E5 FF A5 78 48
 9F 30 27 5F 75 BD 62 F4 FA 96 E7 AE 1A 75 28 AA
 AD 64 E1 1D 29 26 44 10 23 A0 28 8C 7D D2 AF 03
 E1 D2 FE 3B 31 FD 9B E4 7F 4C D2 DA 4C 48 6D 7B
 44 C9 6A 93 C0 32 10 34 A2 55 D1 A7 58 56 5C 59
 47 0F 5A 56 DD A0 D4 AF 2F 44 0D E2 5C FC 7C BC
 2A 90 85 CF 7D FB 39 E4 F7 DA A2 E3 87 9A 18 E5
 73 56 01 7C F5 E1 E2 39 8D 00 4F 28 DA 01 77 16
 37 FB BF 2E DA 6F D9 FA FF 52 7E 1C 41 84 38 52
 F1 DE 1A 1A B2 F1 9C 6F F8 9D 20 19 81 F2 00 E7
 34 AB D5 32 B5 C3 5F 63 C4 49 B7 55 10 8F 24 41
 18 CC 77 EA 72 7E 81 8E 74 6F 95 EC C5 66 8F 20
 A8 36 B2 B0 6D 4E 30 0B E3 46 CC 3C 58 80 5C B2
 66 20 92 63 3A D2 AA 30 0E BE F7 B6 67 4F 45 0A
 11 66 AD 1F B3 57 60 5A C6 BB 7E 80 49 55 E3 96
 72 26 F6 72 2C ED 0A 00 6F 21 16 95 17 CA 82 34
 C5 F0 CF 23 72 6B 72 42 0C 09 55 3A 17 69 C5 B0
 23 F4 E4 F5 5A 65 4A 2C F6 17 93 EA 13 2D F9 CD
 C9 70 30 A0 04 9C C5 70 12 B5 68 0B 09 A1 DE 41
 04 E8 B6 F1 71 9E A7 2D 87 5C 15 C8 C0 15 4A 63
 48 73 18 E3 39 BC 69 7E F1 9A C7 9B 00 B3 2C 84
 CF C9 D3 ED 41 D4 CF CD CC 39 0E 76 3A C1 6D 35
 72 1D 7D 28 F7 9D 42 AB E3 4D 4F AC C5 B7 41 37
 0A DB 19 14 AA BE 67 43 5E 6D D4 C7 FD 84 D8 FB
 07 63 EB 4A 3B 34 4D D3 E4 78 FC 07 A1 1F DB 97
 5C 0C B3 C8 0E CD 29 6B F9 5D 2F 17 3D 5D 18 CA
 61 F9 8C 22 02 34 CF E4 63 BB 4D C3 EB 35 86 40
 1F 50 B5 9D F2 E4 42 A9 C2 54 2E 8C 53 B7 57 40
 48 8C AC 18 4D 3E CC 11 FD 06 E1 51 76 23 26 17
 90 CE 02 91 E1 A0 F7 91 B5 2A 02 86 47 BD 07 D2
 F7 ED CA BA A2 8D B1 9B EC 79 9E FB 43 DD 92 87
 4E C1 17 66 4A C8 6A D1 AB C0 1D 53 B8 6F AA CA
 1D 8B 4D B4 C8 C4 A1 0C C4 D5 36 F3 52 29 EA CF
 F5 31 8E 41 3A 07 78 AB D2 F6 8F F4 3D 5F 3F 1B
 6C 79 E9 35 87 7C 41 1F 81 7F 54 F1 89 7B 2B 42
 8E 9C 6F FE 14 CA B2 2D 4A D3 74 34 CB 9F C2 CD
 6D 46 03 91 46 78 E2 F1 E5 67 A2 3A 69 85 2B 57
 CB E0 D9 E9 FD 13 A6 86 AC F8 D4 EE C4 69 33 9C
 13 DB FE 22 C7 20 FD 41 2C C3 31 51 24 19 7B 1A
 63 4B 35 75 28 DC E7 2C 40 16 EC 2D 30 0C 61 A4
 6B 14 1A 31 20 81 2E 35 FB F3 A7 CE FC C7 10 47
 A1 52 DA 86 B5 1F 86 3C 4C F2 FB 65 91 7F 24 22
 C4 AF 53 83 AD 92 78 BA 28 3F 9F F8 FE 62 72 CC
 5D 0D 25 8B 9B DC 47 02 C9 EA 09 A6 2F 05 01 71
 5A E4 37 CF 27 29 2B 26 BC 09 87 36 B8 3A 9B 8D
 DD 8D CE B4 E5 D7 53 4D 62 64 25 57 19 85 31 C2
 8C 5F 0D 22 72 2F 5E 8F 4A E2 D6 72 27 72 29 5F
 16 9C 5D A5 58 F9 E9 F5 82 DE A5 CA 38 97 06 A9
 EA 12 87 C6 60 ED E2 4B 4F 91 D7 6F C8 B8 48 B8
 37 9E E7 E4 E5 4A D8 1D 59 69 E6 98 9D 86 3F F5
 1F C3 0C 6E 00 87 03 A6 17 63 9A 17 7E 4D 47 3F
 1F 3C 2E 62 D1 BD CE 69 CF CB A0 FF 12 61 1E 9B
 3E 9F FE 05 E8 2F 20 11 25 AD 3C 78 AD 0D 3F 56
 FF 58 B4 22 33 92 64 29 48 D3 7A 8D 9C ED 00 9A
 AB CE E4 B8 60 76 13 F2 10 E8 D4 C5 E7 1E 81 85
 70 16 84 B0 7D 19 4A 8F D3 70 37 7D 52 D4 B3 4D
 AD C9 86 2E 92 68 01 73 44 1F 49 D1 72 0F DF 8A
 81 0F 35 47 DC 00 6A 06 EB DC 10 2F FB E1 9C A4
 3B A1 41 BF 5A 2B 25 B6 8C 98 3A 22 3C D9 48 58
 40 D3 DA D2 44 DE 8A 82 93 3D 44 C6 3F 8A 9D 7B
 5B 59 75 1D F9 55 AD 89 EB 72 1E D9 C5 E4 5E 92
 1E FD 70 82 40 8C E7 9A 7C D9 CB 5C 3F DF D5 25
 54 8A 2C 3B 47 96 DA D2 B2 61 9A 4D 09 5D 32 38
 5A 00 26 DE 14 27 AD 2F 4B 58 EC 40 CC 6F 06 73
 46 D6 02 DF BA A0 1F B0 02 4B 02 87 E6 8C 7C 37
 B8 85 72 01 8A B1 20 42 80 BD 29 D0 60 9F 51 4F
 E9 95 49 7A 5C E0 69 74 6A 9E 05 43 22 F1 EB 33
 BB 81 B8 E0 C1 B6 65 51 A6 B8 95 59 5F 2D 3E A4
 D3 66 63 A5 AD 77 ED D7 74 66 1F F3 D9 05 24 DB
 D1 E4 5E 73 42 76 7C 9D BD CD 89 7F BE 38 C0 0D
 3C 71 00 F1 39 E1 90 C4 B2 EC CB 2B A4 22 6F 1A
 65 75 7B 9B A8 30 BD 0C 19 48 73 F5 F2 72 34 7D
 95 B5 A8 1A C4 31 DD CC 33 CE CD 99 0B 82 68 89
 1D 50 BF FD 89 D9 05 72 51 66 2C 53 BE 0D 54 85
 EA 2E 5B CC 2C 14 36 49 E6 FB 1F 68 36 87 B4 3B
 A3 52 98 C5 03 E9 F4 67 48 2F 8C 88 D8 07 0B FC
 78 2F 00 FF 6C 8B EE F4 D2 FA 73 02 08 B0 93 58
 46 79 1B 65 2C 61 96 2B A2 7E 6A 6C 59 73 88 5C
 99 62 71 8D BF 47 1B 38 F5 AD 04 A6 54 E2 18 1B
 17 F8 2F FB F9 13 40 75 78 CB 42 42 6C 2C AC 10
 47 97 A9 CF A1 A0 7D 7A 87 91 90 CC 39 8F 17 A2
 A2 67 AC D2 3E 92 C4 94 D7 15 C9 04 B9 71 A2 60
 56 81 F9 57 0A C7 9F 67 15 46 EB 4F 04 8D DB 11
 F2 61 08 30 4D 92 9E 49 0A A0 B6 81 3E 8A D7 2D
 05 26 02 D6 47 78 B2 41 4F 0E 39 B6 C9 68 6C 38
 13 B6 A4 EF CE 43 D4 A0 79 6D 20 EA 2D 4A EE 2D
 93 4A 4E E7 1A 8D 7A 97 2D 91 34 1A CA 9E A2 45
 CE CE B9 22 24 5C A6 A2 75 B6 22 9C EB 7B 56 6C
 4C CE 66 17 0A C7 26 9F ED 19 D0 51 F5 7A 70 3D
 BA 46 31 D7 DA 83 3E 70 E2 0C 7F AB 0A ED 0B AF
 4C FF A4 1B 52 24 B5 C5 B3 4D B3 96 CA 8D 0D E2
 DE 38 E9 67 FC 66 34 C4 64 71 0B 27 B2 BB 60 67
 2E 4E 50 A8 DF 00 40 68 58 EE 7D 4C 0D A4 D3 37
 F6 13 B5 A1 00 CD F7 61 3D F7 28 CD D8 D1 2E 83
 9D 71 55 DD A8 93 C2 76 B1 F2 A6 B8 03 9A 13 06
 8F F6 99 C6 C4 11 D5 B9 B1 22 0B 63 79 6D 35 9A
 21 CF B2 DC 9A 21 AD 7B 1D 4C C9 AD 1C 48 5C 38
 4D B7 B0 21 ED 63 A5 CF 7F CF 70 B3 2F E8 6D C2
 2F E3 E5 7E C6 C7 EE BF 24 89 0E D3 D8 B7 D7 05
 5F 1E 44 BB 3D 80 83 9D E6 81 06 0C 63 47 C3 4E
 7C 04 AD 4E 1D AC E3 71 9C 60 33 A6 84 3E 31 54
 65 CA 5A 0D 96 57 53 53 AE F8 DA 21 EE C1 ED 09
 33 2F 69 D2 3D 07 AE DD 4A 98 AA BF FC 52 1F ED
 6C 0E E2 B3 1C 25 C8 74 BE 2C 5A 21 41 BB 74 42
 81 EA F4 29 E2 5B C1 1B 69 98 61 39 72 B6 52 63
 A4 5A E3 9B 78 B6 6C E5 7B D9 95 85 27 CF 8E 93
 C9 27 61 13 82 B4 E9 1C 89 EB C5 5B 70 54 F2 B7
 CA 90 59 48 D1 87 93 C7 61 BD 79 56 EB 2E 5E 4E
 6A CA 25 40 87 14 22 B1 C6 D9 BE A6 5A 83 40 B7
 51 D8 CF 2E 00 3B C5 1D 1E E1 89 F1 2A 93 06 A4
 DA CF 54 72 85 A4 C4 F0 97 46 08 1E 4D 16 8C 22
 FF 8D A3 88 85 15 F3 2B D9 AF 83 EA AC 61 41 CF
 5E 22 6E 5B E3 DD 9A 13 F6 53 48 6D 93 D8 D1 26
 E6 BB ED 9B E1 DB DE E4 9D 4E D7 EC 5F 60 41 24
 AB 7A 3C AD D2 03 58 C1 44 C7 2A 01 34 A3 6B 7E
 22 5A 23 4C 25 AC A6 2C F1 AE 10 35 5B 4F 5B 3C
 FC 8A 53 80 89 43 68 2D 7A 0A 46 C8 A2 20 13 56
 1F E5 19 77 9C A7 C6 6B 7B F3 5A 4B 7D B4 41 C0
 AC E8 5F 0A 1A 5C 51 D7 45 A9 5E 9D 2A B7 55 21
 C8 9C C5 70 44 58 8E 67 AE 15 87 09 75 B8 64 B8
 2D 67 35 7C 55 60 49 15 C6 D4 BA E8 AA 16 98 19
 BA 3E 34 8F 06 FF 30 3D 39 C1 06 80 3B 31 3F 41
 2F D5 CA 42 10 CB EC 55 DC 8A E5 1E 03 FF DC 70
 38 8F 91 BE 56 05 62 B8 1A 65 70 30 C4 A1 44 B5
 5D 04 1B 29 FD 0F 01 7A 7E 2B 9D D7 10 47 04 46
 7D C5 A5 17 9E AE A5 86 02 E8 D5 0C 31 E9 81 88
 93 EA 5B 89 19 C0 4D D6 48 A6 1E A4 CF 4F 12 BD
 FD 2E B8 6A 69 64 7B 49 51 DD 0E 30 69 26 BD 0A
 56 3F 0D 84 EA 51 9B 73 74 B6 AD A3 9A 24 5B 2F
 A8 CA 90 B7 DD 68 08 4C 49 BA 5B 4F 1C A8 09 89
 39 65 B7 7F 1C 0C 7C 0B 2D 62 FA 37 5F D6 B3 EF
 84 99 74 B5 E6 64 20 C5 82 FD FC 97 DE 4D 59 D9
 E2 D6 90 B4 23 1C 80 E2 E3 E6 25 85 74 32 2C 6A
 13 CB 10 FD CF 50 E7 46 26 05 3C CA 5A 5E C1 D2
 8A 17 EA 48 4D ED C8 1F 8A 12 1D 5B 75 52 78 36
 B1 CA D3 9F 53 8E 3E D8 67 2F 79 F2 10 22 44 D6
 AB 29 AB 07 96 2D 58 79 E4 D9 A7 D7 76 2A 51 44
 8B 9B DF 52 F3 E9 81 FF 82 D7 77 B5 E6 2C BB B8
 64 B0 35 95 BD 95 EF 72 E0 A5 A1 D2 03 7D 40 D2
 5E B6 74 02 28 41 4C 15 38 9D CF A8 0C 12 52 BE
 DF 15 E0 8F EA B8 88 A7 5D 0B A1 34 2A 72 6F B3
 9B A4 A6 FD 6E DA D3 84 A8 FD F6 F4 4F 7C D6 E7
 CD 12 7E AB A0 4C 28 05 A3 92 29 BB BE F6 35 6D
 E5 B4 0D B8 CD 48 DA 44 B1 C1 E7 A3 DA 1E 26 C6
 E2 DA 61 D5 40 6D 81 08 7E 8A 85 1D 28 0F DB 8D
 5A C7 FC 01 F4 81 25 43 01 7A A0 95 37 91 0D 52
 D6 E4 44 51 CE 2C 0A 15 B7 A0 87 77 22 92 1C 1E
 44 D7 8D 11 0F E3 1C 98 5F 41 12 66 FC D9 BD 95
 BF B6 23 67 48 EE 51 38 55 D1 CD FE 40 90 0F 84
 FB DA D2 D2 24 A8 92 C5 4D DA E9 70 A2 6D A1 07
 8E 85 E4 DF DB 67 AD C0 EE 3A A9 E2 1A D0 28 14
 93 20 3E 21 51 6A 1E 87 30 3A 8C 2C 84 EB 6B 33
 D9 1C 67 8D F4 7D C1 E0 A0 6E 27 85 6B C0 C6 A4
 0F 92 BD E5 92 92 0E EB 9C CC AF F3 23 47 88 B7
 A3 0C BC A1 B7 9A D5 48 19 7C 3D 6E AE 9B D1 CA
 B5 24 5A 7F 09 14 97 27 8C 86 26 B0 31 F3 05 3A
 A9 EB 07 68 E1 BD CA 74 DB 0E E6 62 12 44 4A B9
 7E FD 2B F1 D7 6E 4A F8 96 C0 B5 31 4A 55 5B 24
 D4 DE 22 C7 AC D2 E7 C4 67 0E 6F 96 1E 6D 17 B3
 C1 60 9E 04 DD 1F A6 E8 CD 44 24 7A 69 DE 35 73
 1C C0 1C D7 E8 B7 72 CE 1B 1C 5B 51 14 78 B1 D5
 54 35 A9 27 D9 6E 9B 67 93 C0 D0 17 0F B8 67 06
 40 DC 2B 66 60 51 50 A6 CE 86 DD 9D 1D C2 1E 43
 BA 4E 41 D6 8E F2 F1 EE 85 36 87 22 3C C4 BB 59
 28 E3 42 76 FD 79 4D 8E 0B 93 F2 33 0A 76 FE 4C
 54 B7 D7 D5 EC 1D 61 ED 91 2F ED 14 F9 24 52 4B
 6D 12 EB A7 14 43 01 6A 1D 88 17 6B 67 F8 A7 9C
 BA DD 65 1C D1 1C EE CB 0C 1C E3 12 55 1A CE AC
 1B 0D 7F 6F 33 43 B8 C8 E1 7C 3D 40 DE F1 B4 1B
 61 38 BD 6E 42 A0 1D CF 14 EE F4 B8 38 19 AD 00
 8E 0E B7 9F 71 1B 6F 02 50 8A 7A 42 7D A6 C3 BE
 10 44 DF 1B E6 EE 5F F8 FE C5 08 F9 ED 0E 8C 9F
 1F 43 21 A0 52 82 EC BE EB 99 AB 67 05 01 F3 72
 78 E2 72 7E 43 A8 A2 9F 12 8B E7 5C CF D7 2F 0B
 C0 41 C0 57 79 11 1F CF BC 53 87 3B 8A 89 39 DA
 B9 A9 3F FD 4B 71 9F E0 28 46 34 0D 91 3A D2 42
 A8 2B C3 81 7E 02 4A ED A3 CE F0 8B EC F0 F2 7A
 A5 44 F3 7D E6 06 47 AD B0 83 D7 F6 EC 7D 8C E6
 66 B2 23 57 8A 44 8D AA BD 31 5C 3D 7B 87 BA 85
 46 30 25 5F 39 93 B9 C3 BF EA 67 90 CB FB 66 2D
 31 D8 34 65 E5 12 C4 2E 94 1E CB FC F8 CC AC EE
 8E 97 AB 22 A7 B8 5C 20 B4 68 8A 53 16 85 B4 BD
 86 91 03 87 19 B9 6D 77 D1 15 03 5A 10 F4 A6 AC
 41 61 51 28 64 57 FF 6B A4 89 87 C9 B0 4B 0F 9D
 CE C5 C9 35 54 A7 90 72 5F 1F EE 59 F4 F2 08 78
 0A 24 7A BA FA 45 F9 FC 2A B0 75 A1 C6 FD 8A 83
 4D 25 87 08 37 36 C2 EB 79 AB 07 B6 2B 7C F1 B7
 FD 13 D0 16 88 FD 29 E9 71 A2 AE 0B F4 CC 07 8F
 F6 E1 59 10 EF 01 B7 0B 56 40 C4 9B 45 FE 5D 1B
 1E AE 0E 8D 53 44 80 B3 AB A8 74 5F BA CF 5A 4B
 8D A2 65 E5 2D 28 D1 4E F8 60 28 6B 9A 15 8C 9F
 AD D3 95 70 19 78 69 C9 97 0E DA C5 CD B9 3B A3
 C6 9B 4B 93 8B 83 26 D4 0D 92 4A 87 12 28 F1 A4
 9E F8 4A DF 47 54 A9 6A 42 CA 3E 11 DB 1B 3F BC
 DB B6 AA F1 CA 6E 6B 2C 28 E4 D1 FD 2D 02 0E 38
 10 A4 D7 74 29 3D B2 9B 34 B5 1E 08 47 BC 2B 8B
 9F 55 A2 7D 91 D7 34 82 55 07 77 3E A1 D6 2A 79
 E2 DE E7 0F 24 55 D5 57 30 7E A5 1A BD 28 A0 F5
 4B A3 8A 76 44 D1 53 F0 25 C4 18 82 46 E3 5A BB
 31 E7 47 D1 68 FD 09 D7 CE 52 4B EA D5 0F 45 92
 10 8E 8C 64 19 76 36 CD B8 EA 17 22 4F 4A BD E4
 CE 17 DF A4 81 90 04 61 31 D5 63 26 0D 7D BA 6D
 CA 2A 9B B9 D1 C3 BF 4B 18 48 07 F9 CA 15 37 E1
 0C 1D 50 C4 85 E2 F2 FA 14 AE FA B9 DF 61 4A 64
 D9 D6 93 AD CE 3B 94 C4 5A F8 44 1B C8 1C D4 26
 4A D3 1A 50 E1 5E 69 53 22 86 CE 7B D1 DE D3 95
 46 8E AF 61 4D DF 27 E3 D2 76 6A 08 C8 02 B3 28
 DB FE 3A A8 69 85 C3 CB 38 8F 2B 7B 0D 1F 03 A2
 20 E5 EB B9 E6 20 2C 4B 03 CA 67 01 03 19 81 2B
 D3 F0 A2 57 40 DC 6F 71 90 96 29 11 8E 1D E0 52
 95 9E A4 24 1C 0F 50 60 A5 FA 5E CA 1B 60 0D 84
 BC 19 C9 FE 66 9B FD CF 4B 6A 20 06 AD E0 03 08
 83 F5 F7 FC 3B 98 02 C2 9B 2D 7B 2A 46 CE 24 C1
 5C D2 6B 7A 56 C8 9B 70 6F 3B A7 22 B4 92 2C 36
 7F 8F E3 D4 19 12 C8 EA DE 96 CF 2A C1 A8 CB 76
 F3 97 09 8A 00 82 4B E0 08 13 EE 50 47 45 1A 4D
 B4 AC CA 99 63 88 E4 C7 78 DD 2A 7E 77 D2 13 7F
 C7 92 B3 E1 09 37 8F A3 BC 4D F9 8F B4 2B AB C0
 62 BA 00 8B 8C 25 E4 10 B4 1C 7A BC 16 22 D3 74
 D7 55 1F B3 51 59 D4 1A 83 5B 06 44 AE 6C 94 3D
 C5 2E D5 2F 84 A7 19 1E 87 94 3F 4D 14 62 78 D3
 40 01 64 18 E7 EB A5 FA 36 7E A7 84 A9 C6 26 5C
 EB F7 03 09 23 2E A8 AF E7 6B 82 DA 5C 30 8C FD
 A3 10 E2 50 3E 56 45 AA E3 B6 94 2B 01 8F 65 80
 28 85 01 80 27 59 52 4F ED FB E4 12 7A F5 7C B1
 6A 0A E9 A1 A4 3D F0 FA 89 CD CB 06 62 09 29 F1
 C9 5E 32 77 57 28 58 45 F8 2B 1B 19 DC 66 9B 10
 EA B2 20 05 73 1F 33 D8 BD 06 D1 E7 87 3F 5E 69
 70 8F 49 C0 C3 6B CD 5B 4F 0D F7 0E 41 84 E1 7F
 85 D0 16 99 F5 A1 A3 FA CB 04 5D FA 99 34 5C 17
 B4 3D 4D F5 0D DF CC 09 90 E8 5F EF C5 78 98 5C
 2C 4E E2 9F 24 B3 BE A2 DC 7F B4 DF 7E E7 B6 38
 DC AA 41 B2 A1 27 35 FC 17 19 7D D4 CA 45 C2 46
 A8 C0 21 91 A9 EF 4A 96 0C 6A B6 7F BF 8F ED EC
 A1 F2 63 CB 84 22 EC CD 9F 10 90 1C 86 1B C9 6A
 A7 B3 EF 0C 22 9D 85 9F C5 19 4F 91 D2 E9 A8 A0
 25 86 20 DC E8 A6 A9 0B 36 7B 32 C2 A8 07 12 F7
 24 0E B8 25 B4 16 3F 97 AA EC B0 8A 0E 0E 42 CF
 C5 57 9E C3 2C 11 A7 45 F5 6C E2 8C 9F 31 13 68
 E5 78 5A C2 CE D0 FE 1F DE CD ED 47 97 A5 77 DC
 53 AF 34 BC 3B FF 41 52 26 3C 61 FF E9 0E 4F C9
 7B 41 DD 82 7B 21 7E E1 FB A6 3D D1 60 EB C9 C5
 F3 25 EC B1 47 86 5F FD 24 44 3B 16 96 D5 AE 7A
 AA D4 F9 B9 58 50 A5 56 14 6A 4D D1 8D EF D8 70
 2A 78 CB AF 1F 8C 12 03 DF 8D 70 09 38 C9 CD 80
 FD DF BA 56 BC 93 09 AE 23 BC 4B 9B 8D 05 EE AB
 E7 9E 72 39 D2 A6 DF C9 FE 3E F5 BF 21 08 D0 4A
 74 29 F1 5C 23 9E 29 65 69 4B F7 98 87 AE 49 35
 9F F0 FD D1 D6 80 60 36 9B CC 0A 57 62 1C 8B 07
 3F 6B D7 3C FE 24 67 3A 44 C6 72 8E D1 0C 13 2E
 3A 46 90 8C 41 22 C6 9B D8 AA 84 34 F3 CE AA DF
 80 D2 FB B3 89 C6 28 C2 EB BE 22 06 B2 76 EF 36
 15 5E D5 9A 11 62 F5 49 AB 3E 05 7A 13 34 64 BC
 34 24 01 96 68 40 95 8E 4B 1A AA DB 45 71 4E 68
 E8 23 24 4C 7B 0D 3B 33 4A 51 58 19 A0 70 04 BA
 EC DB 2F 6B 43 9A 97 25 D4 F2 67 8F FA 5F 9D E6
 69 BA D3 D1 73 81 82 90 D8 9D C7 4C F6 FB 82 8C
 08 BA 30 9E 71 47 5E 4A 78 29 49 CB E2 A1 CB 37
 C8 81 44 DD 34 30 C6 86 EB 81 F0 79 29 B3 CF 14
 F7 12 C9 C4 96 C2 3B 6F BF 10 B8 FE 3C 7C 9E 72
 22 AF B8 12 1A 61 BF 4F 1B EC 2B 10 25 C3 EE B1
 F1 03 93 60 33 01 91 51 53 86 48 88 75 42 80 09
 54 CB 97 3D 7F 08 B5 70 E4 F9 DF 66 52 B9 CA 02
 68 92 93 15 D4 61 E6 31 52 57 B6 C0 80 FC 26 A6
 C7 2B 0C BB 2B 14 CA 3C 57 77 98 BF 9D 05 9C 06
 37 2D 2C F6 07 AF 68 D5 F8 37 16 DD 3B 3F 18 61
 91 A2 81 1D 86 59 A6 3D 2A 6D 13 30 A3 B7 EA EE
 C6 55 CD B1 18 50 80 D7 A6 77 A4 21 49 F3 19 33
 66 96 CC 6E 5C 52 DE 72 2E 41 F0 CA 4C A8 BA C3
 6B 5C 99 64 F3 C4 BB 58 FF 32 8D 8B 9B 00 EF FD
 E8 9A AC 71 27 CF C2 26 65 DA CD B6 3D 3F FF 9A
 16 D2 9F 69 4C D2 A0 AC 29 1D 59 52 D1 01 C1 08
 3B 09 49 2F 8C 5D 7F 8C 3A 49 32 3E B5 54 B7 CF
 48 6E CC 18 32 5E 9F 31 E1 E1 89 63 3E 95 06 FB
 C8 DC CD 7D 6D B2 88 82 6C 95 72 E4 99 03 9E 3F
 17 01 B3 12 E0 BB EA C9 0D AB 03 CA 30 89 38 1E
 CB F0 F0 3B FF C6 6E 34 20 FC 21 D7 11 25 AD A8
 D4 EF 93 CB 9B BB 12 DA FB F5 0A 30 84 D4 BC F9
 5B 49 2A 38 29 DB 88 95 AB A4 63 D4 04 53 96 F3
 56 10 E6 5A 4C 45 D0 85 2D AC 13 82 0E CD 54 D6
 98 ED 35 15 06 94 F3 54 4F B6 69 5A 27 43 5E CF
 45 A1 12 C3 CE AB 97 11 CE D2 92 B2 4E E2 A1 98
 95 5F BC A1 EB 2E 4D 7D B3 45 19 BE 46 A5 2D 54
 5D 87 A5 9C 7F 86 22 F8 5D 89 ED 88 EE 5C 91 32
 E3 0F E4 24 59 7B FC D0 33 99 D6 2A 90 98 35 CB
 05 44 73 37 61 67 0A FF 74 85 A1 78 25 D5 D1 64
 54 C8 77 D6 3E 19 FD 2F 1B 5A 99 49 0B EE 27 A8
 8F E2 99 7B CD D0 ED A2 9F 8F 76 BC AB 4A F5 2D
 E0 74 B6 89 9D 0D 0D 8E 78 D3 45 03 E4 53 D5 C3
 1D 4D 7D F7 78 31 FA C4 60 AB 75 5D D4 EB E5 78
 33 F2 60 99 23 88 B9 9A C0 18 C6 9F BD 17 7E 15
 CF 74 10 B7 E7 5D D7 A3 BB 3B E2 19 62 41 88 F0
 E6 6C CC 86 0F 7A B7 D4 EB CA 23 1C 0C 1C BA 95
 C9 95 3C 60 E8 6B E9 E9 70 13 EB 72 F1 9E 3A 25
 46 39 8A 9A FD 85 38 67 A7 A2 83 79 86 FB E5 F1
 65 5E E7 B3 25 E2 49 47 C1 B0 38 DD 74 82 1B C7
 88 77 BB 4D 22 5E C2 72 EE 9F 66 A0 7B 3E 60 F9
 F6 4D 47 D6 13 E4 E1 F6 19 2D A4 F7 30 58 58 D4
 5A D9 50 AA EB 8B F7 2B 99 5D 62 B3 7D 67 E6 25
 E2 B7 F8 AD 98 44 47 85 E4 4C 8E 4B AA 09 D2 20
 68 33 1B 8C 15 EC 1D C3 B0 24 78 42 FA B3 61 F0
 D5 A8 8B 9E F4 B6 9C F4 EB 57 A9 FA 79 63 97 C1
 36 37 97 3C 24 10 19 FC 58 03 42 6D 48 07 D5 D8
 FE 15 FD C9 36 4E 53 82 36 6C BE 15 AA 38 3C A4
 09 38 8C 70 D0 8B 24 04 57 70 49 1B 74 A6 BC E7
 E4 61 77 1B DC 11 16 C9 A4 3F 69 AB BD 23 B3 A3
 75 95 19 38 08 A0 E8 4A F7 4A 1F 86 FC 3A 28 A4
 7A D1 4E EA 26 8D EB 94 6B F6 31 D0 1E 5E 52 DA
 AB 10 14 62 14 3B D3 74 13 3E 17 2B 54 C3 F2 56
 FA 7F 04 FE 61 52 9B 89 7C 51 01 4C 50 56 C5 DF
 A7 9A B7 3A 90 05 35 71 33 48 E0 DF 86 49 8B 4B
 55 85 D9 CF 16 9A 71 AD ED 21 63 C2 72 DF E3 6D
 9B DD 08 82 36 BB 40 13 11 BA 5D 4F 80 48 01 65
 80 51 D6 E4 B2 00 A0 2C 34 C8 8A C8 6D 39 6C 4E
 68 BC 15 9C 0E 2A 3B 8C 51 69 92 F8 70 0D AC 20
 A3 09 36 6D EB 50 7D 43 CD FC 56 24 7A DC C3 BC
 D7 84 12 9F B6 D0 7E 39 E4 75 04 DD 88 73 4B F4
 BD EB 11 5B F4 2C B2 91 81 CB FC 88 28 66 16 C9
 F4 5E 91 F5 8F AC FE 13 FA 93 9C 6D 76 30 DD CC
 ED CD 94 8B C2 75 49 C6 87 19 9F A7 39 26 23 15
 07 12 DB 70 B0 AD 16 97 D4 1A AB 79 39 5E 23 FB
 9F 1A 87 23 E1 B5 00 7C 90 B8 AF D1 15 43 2A 60
 09 73 3C 67 DB 72 AA 11 DF F9 02 4A D2 3A E3 6B
 D5 E6 A6 C8 0A A4 B8 5B 22 85 16 E7 72 98 47 56
* End 3782497416 2485396998