* LTspice Encrypted File
* 
* This encrypted file has been supplied by a 3rd
* party vendor that does not wish to publicize
* the technology used to implement this library.
* 
* Permission is granted to use this file for
* simulations but not to reverse engineer its
* contents.
* 
* Begin:
 FB 4D A1 D4 BF E0 C9 69 DC 6D AA AB 5C 00 82 4A
 C9 63 3A E3 0B 5C B6 84 70 ED 33 93 30 26 A2 8C
 EE 67 3C AB 55 F5 35 76 24 E7 FA EB B7 5F 89 B0
 C6 FC FB 75 3C A9 19 D0 25 F8 7D 4C AE 61 15 29
 7D AE 7E C4 5B 28 84 84 25 D4 D7 B2 74 21 51 D5
 0C 9E 09 BC FD 0C BA BA B7 5B B0 6B 7E 31 64 7C
 54 6D 68 BA D9 1A 85 D4 22 77 0E 9F A8 8E 25 34
 A3 BF DD 40 9C C2 4D B8 87 76 E3 90 FF A2 6B C6
 6C 03 66 C1 5D DF 41 5F FD 5D 5E 9B DE 7C 12 40
 6A FA 94 62 39 67 E4 21 90 B6 A3 61 D0 A7 9B ED
 F4 91 A7 3D 9D 2B 88 2E BA BC 19 5D 77 C7 A3 B7
 73 10 AC E0 CA AE E5 14 A0 33 18 9D A9 35 DE 00
 84 19 63 9D 02 0A 7B 4F 7C D2 80 D5 A1 8C 95 C5
 D5 6A 60 54 F4 73 10 01 2B 17 D4 42 52 E4 36 DC
 4E A3 D1 34 96 AD DF 3D B1 A6 3C 6B D3 2B 23 E4
 4F 40 11 8A CA C4 E1 81 78 56 5B 39 7C 11 77 42
 98 4F 20 AC 45 A0 77 44 DA E2 0E C7 37 DA 0A 59
 37 2F 87 EE 6E A2 49 9D 96 90 77 59 7A CA 76 DD
 D6 68 37 C0 87 92 A0 F9 AB 75 F0 53 E7 BB D7 BD
 DC D8 B8 4D CC 7B 7F 4E 7F 08 76 02 81 05 38 EE
 1C 98 2D 26 3E BB 62 08 88 2C 4A C1 7C C5 0B A5
 49 CD 0B 4B 46 61 F3 93 8C E4 29 B8 FA 18 68 52
 A9 4F 5F A3 71 CD E9 16 FD 85 B7 63 07 4C 51 E1
 AD 5E 29 01 39 07 4C C6 AC 7E 50 49 D9 33 99 51
 79 36 38 A0 F5 D3 80 7D 7F 84 17 D1 D1 04 06 A2
 A4 AD 19 27 92 5E AC 67 39 B4 55 81 C6 19 6A 51
 45 1D 46 79 06 01 4E 3F F5 0C 6B E6 BE 11 0D B5
 64 10 66 76 EC BA 41 7D 87 B9 7C 15 92 63 EE B7
 07 6E ED D8 2C BB 27 B5 3A 2C 32 E3 F7 7C 49 BD
 2F B5 32 1F 20 EC 2A 91 32 EA 4B 86 9C CD E0 93
 DA ED 50 2C 8B 28 5C F9 70 6F DF CF DF 80 8B 3C
 9B C4 B4 EB 98 05 F0 D3 6F 98 1C 8B FF 60 97 C3
 7A C6 AA 5F 23 0B 5C B0 47 EF B8 FE 33 BB 47 D1
 60 80 A0 D6 58 70 21 75 E3 E5 60 5C 96 F6 9C 94
 B1 61 8C 8C 5B EB 4D 14 66 15 54 E1 24 FB DB 27
 03 90 4E BB F2 97 A7 F5 3F E5 84 9F 91 51 8A EA
 E4 B1 7C 88 74 74 63 43 0E A5 B0 D5 50 FD B4 9E
 0D 23 D6 91 B0 A0 93 A0 6E D6 CF EE 6C 79 FE 2C
 23 F7 34 5B FE E0 E3 E7 6B 89 CA 48 79 BA 69 6A
 B7 DC E8 DA 49 F3 32 47 06 83 E0 AC 6C FA 24 E3
 0C 4D 31 A3 80 78 49 2C 53 25 0D D4 A8 9E B5 8E
 41 54 DC 60 42 F6 7D E2 E8 94 CC 9A 25 33 87 FF
 CE ED CC B9 0F A8 4B 29 CE A5 E8 35 17 BA 80 E8
 FB AC E5 8E 3A 2E 86 50 81 38 B0 0B 51 D6 17 E6
 AF 74 B5 4C 12 32 4B CC 2D 1A EE A5 AA F4 F4 2F
 4F 5B 19 2A 41 1D 72 3A BA CC D2 3F 01 BA C5 6F
 1F F4 BC 92 1B A9 FA 73 FF C2 11 C8 5B 76 0B DF
 79 32 E3 1E 09 1D 47 C4 C5 93 43 16 8C 00 5B A4
 F0 CF 68 D2 9C 10 42 0A C0 CA ED 67 1C D7 12 4E
 22 76 C3 27 56 29 15 04 1E 21 C4 1B 7F 55 66 4A
 2D 98 F9 D3 73 BD 32 1B CC FF 19 70 88 5D 39 9F
 D8 B3 AA 76 52 19 63 97 71 C2 A4 8B AC 91 87 80
 66 EF 07 B6 36 0D 62 4B 34 8A DF 97 21 E2 90 EE
 21 D0 28 2F E5 35 E4 25 1F 02 91 29 FF 3A 3E C5
 99 40 AF F8 F3 41 7A 2F E4 D5 30 AA 28 CE 7D 79
 5E 5F 36 FE CA 50 AB D7 68 AA 67 20 8E 8E 14 92
 4B 17 DC 2E CB 0E 52 13 91 E9 53 B5 CA 6A 10 42
 EC 1C EF 60 B0 69 94 95 85 63 DC 83 DC C1 27 1B
 A1 E2 2B F2 C3 D2 8A 1C EE 20 51 88 0B 6C 54 BB
 0D C3 68 96 19 07 30 DB D8 BF 35 42 1B FA 46 6D
 E5 40 9F 69 C8 B4 47 2C E5 31 58 50 10 43 E7 18
 DF 84 9F EC CB 3B C4 84 52 81 45 8A BC 33 73 28
 41 EA 70 B1 EE 78 59 C4 5E 76 F6 38 E2 9F 4E 82
 74 15 E5 1F 1F 67 C8 D7 A9 F2 0E E0 2D 1F CC 06
 01 DA 02 31 B9 D3 E2 E4 B2 5B C1 69 87 CE 00 99
 56 F9 8D 71 F1 E9 C6 D7 CB 56 D2 18 0A 35 A9 8C
 AC 19 24 F0 27 09 22 EE 96 C1 76 D0 79 AF 07 C2
 03 99 03 37 32 7D 09 D5 98 19 74 80 42 6D C2 7E
 7B 64 43 18 64 26 94 89 A4 75 AB 2A 43 23 74 74
 D3 0F 84 C3 EF 0E B8 22 C9 C5 3D 68 3D 41 C5 A8
 FF C9 DE 91 4E 60 75 C5 C0 BD AB 16 F4 2F E2 1E
 D7 F7 B3 9A 63 4E AB E6 17 06 9B F7 59 DC DA 1F
 E0 D7 40 DB B7 3D 60 CC 7B 99 42 45 59 45 85 2F
 E0 0E 8F C6 B2 A3 27 3D C6 18 D6 F3 65 21 18 DD
 62 E9 60 56 3B AF 37 38 8B BA A8 C1 AA FB 07 AD
 9F 7D 29 E4 E9 BC CD E3 8A 6A 0E B8 47 7F 1A F8
 93 E5 1A 13 3C 53 FC 48 07 67 C3 90 22 9E BA 31
 39 2F 9D FD C2 9C D0 40 CD CC BC 89 DE 64 B5 4B
 A3 A8 91 C1 2E 15 7B 91 23 05 D3 F0 31 77 0D 6F
 78 85 5E 6B 2B 91 38 13 C7 A5 E2 F9 78 B6 5A 7D
 C6 63 30 44 02 34 9C 54 E4 AB 6D 10 21 99 D0 00
 3D 94 73 13 29 50 4F C6 7A 92 A8 AE D4 67 78 F7
 8B 72 61 A1 9E A9 82 12 7C B1 A9 F0 EF 89 31 16
 7B F6 36 FB B0 28 43 59 94 DD 41 95 9C BA 2C 2D
 0D 53 8F EE 91 F4 00 6A EE 59 6D 5E 15 29 F5 97
 DD 69 B8 68 13 70 CA 02 55 7A A8 A7 E2 8A 06 C7
 BA 5D B4 66 D0 05 B0 F2 FE FF 50 D9 C8 D1 CD 07
 C3 2E 8A A9 DB 30 6B E8 92 77 46 CE 16 1F 96 04
 E9 B5 D8 A3 8D 62 1A 81 AF 58 EF 7F 69 26 BB 4E
 2B BB 7A 28 E2 D0 3A 07 0F 43 0C FE 88 DE CA C9
 72 39 2C 1B E6 4C 5E 20 4B 1E 5B A2 0C 57 5A 25
 9B 17 15 60 D7 5C 74 38 CD 0B 35 99 D3 B9 8B D2
 8A 5E B4 76 F9 90 16 AE ED C7 10 62 E0 8B DD 95
 C9 EA BB E7 31 10 2F AC 30 AE B9 D6 B3 5D 2C E2
 CA 89 33 9A F8 DD E6 AC 02 A3 30 25 ED 31 8E D5
 0B 21 FE 4D DA CC 43 E5 86 6D DF E3 FD 70 D4 C1
 B2 E1 BE 93 E3 C5 6C 69 80 E7 1A 32 16 4C 53 F0
 8C 9B BB 14 25 6B 22 AA F3 75 38 E8 5D DB C3 18
 BF 8B EC 4A 78 46 75 86 CC E9 3E 54 3A 3A C4 7C
 7E 76 F0 5B 05 31 58 5A 0B 17 1E 23 68 C3 C7 01
 69 71 D6 C8 B9 A7 EC 5D E8 0E F2 AC FE 08 AC 1D
 8D 70 20 0A 04 29 9B 36 C0 CF 23 59 5B C9 D0 7D
 64 37 44 6D F7 5B 50 99 A9 78 2E 11 0B 9D 6C 93
 2F 04 C8 25 E3 55 BC 51 CC CE 4C E8 CF E2 93 39
 47 74 2E 1E 9F 9B 12 69 5A 92 89 A4 7C EB 99 7D
 21 AC 9D 88 3F 25 E5 A9 3B 09 47 08 3F 13 28 50
 EB 36 91 F5 49 B7 74 15 C3 D7 63 05 23 56 58 1D
 D8 56 14 14 FE 54 57 AC F5 7C 9D 25 2A 28 B3 E5
 7D FB 36 34 22 0D D5 1B 77 71 81 2C 9D 5A FB 6D
 26 69 81 9E B4 C1 CB 40 86 0B 7E AD EB C5 A8 E2
 E3 1B 6B 49 71 08 6F 83 5A 1E B4 22 1C A6 67 4C
 C9 A2 CA CE F2 3C D5 4A C2 03 B5 38 31 0A 3F 6F
 D7 95 E7 4C 75 99 03 79 C9 2F 0E 83 4A 2E D2 4A
 F8 FF 91 11 CD 4F DC A0 09 78 FB BC C7 A1 3F 32
 43 C5 3E 4E 25 1F BB C0 04 2E 6A 39 5C FA 81 7F
 59 A5 CF 4D F7 66 5E 02 96 A6 43 09 CB F3 B4 2B
 58 50 B4 C8 FB 74 A2 31 26 2B 43 81 EC 1E D8 02
 E8 D3 E3 4C D9 81 8C 52 51 8B 08 8C E1 F3 71 9B
 F1 53 2A 87 2D DA E6 48 FA 1D FE A7 A2 ED 04 2D
 5B C0 B9 EC B6 A6 77 6F 23 3C 3F 6F F6 B3 D7 54
 29 7E AD 2D 65 FC 9C B7 92 F0 6F B1 3A A5 D5 31
 04 70 A4 83 37 50 B2 EA 33 68 27 D3 C9 A8 7E 07
 CD 03 1F C2 CC 41 8F C9 45 D9 AC A1 36 E6 34 45
 EE CE 12 C6 CA 63 9A 80 88 B9 3C 4D 41 C4 76 DF
 09 64 78 B5 9D 9E 5D FF B1 4C A8 3C C9 6E EC A7
 6A D7 F3 A6 54 F4 AC E0 77 85 8A D8 BE D7 DD 32
 7E F7 94 74 9F 5B 02 43 4A 52 BA D2 C2 85 BA 3F
 70 D1 D2 99 89 30 28 EB 75 E0 14 66 76 03 D2 96
 AF 86 D6 E9 A7 A3 97 E5 3C C4 C5 4F E9 E7 88 A1
 B4 4B E0 41 FF 6A 19 A4 8F 68 AF 4C EF AB D2 DD
 4F 76 CB 00 4E 60 FE CA EF 97 67 28 26 6E 3E 41
 34 30 8F 42 C0 68 3D B4 23 D1 0B 3B E1 7F 9C B7
 6A 1B B4 C7 47 59 B6 26 92 95 4C 28 BD CC E3 12
 6A 6A 5D AF E9 E1 17 B0 47 A1 E3 54 40 5D D6 9A
 36 54 E3 58 76 F0 35 2B D1 E7 7A 0F DC 51 EA 68
 8E 86 41 35 D1 AE 19 A4 48 ED 75 01 ED 1B D5 AD
 8A 69 95 AE 15 33 E8 0F 50 E6 8B 00 50 80 21 4A
 75 A9 78 D5 B6 45 D6 04 BB 81 98 E2 12 CB EA 3B
 C6 1A 09 7F D7 2E B0 12 E5 49 E5 26 58 3C 6E 14
 6B 07 E4 A0 5B D0 D6 6C 5D CA E1 EA C7 CB 11 2A
 2E B3 E5 EE 27 31 E4 47 A8 63 15 29 D1 10 30 1D
 30 64 3F 16 29 34 BA 63 CB B8 E0 DC 91 D7 C7 8E
 8F 6E F3 4E 5B 26 98 F5 CC 7B 5D 7D 9D 39 95 3D
 C7 A6 DD F8 FC 7D 98 80 96 D0 1A 1C E5 AB 3A 45
 1C B2 01 0D E7 3E 73 A0 A0 54 D3 69 6A 4C 0E 98
 C1 74 8A F9 DE 69 C6 2A A0 9B BE 41 E4 6F 20 84
 C4 B9 9F 07 13 CE 2B C5 1A 31 BC A2 0D 96 41 BC
 EF 21 31 43 3F 03 0C CB 54 67 4E B8 91 BD 18 1C
 47 AA 72 0B 8C 5B 3A BC A7 10 75 AA 99 DE F3 81
 CF E6 A6 FB 8D AB E0 26 FA F7 0D DD 6A 5E 3B B5
 43 65 ED B0 4F 09 A5 87 F5 B7 5C 81 87 8E D5 2E
 86 61 74 8E 10 8B 8F 2D 15 C8 C1 3C 9B 75 8F 0E
 5C CF 4C CC 1B E6 54 32 5A F6 A5 2F B5 8D 1B 6C
 20 3D EC 75 F4 D0 3C F1 B6 08 A4 EC DB C4 BC 4A
 41 5E 79 EC 69 98 04 F1 FE AC 76 84 5C A8 11 A4
 30 16 01 8C 6A FE 6D 99 97 BB B4 95 26 B4 82 BA
 59 A5 C7 70 85 F1 9B 32 4C E3 CD 4B 6A 03 46 8E
 F1 19 16 91 B8 D6 BD 08 3A F7 2A FC 45 17 2F 27
 9D 83 B7 BC 78 EA 6F 04 71 39 D3 2D 6E B4 64 97
 4F EF 30 02 E0 BD 08 B4 82 B8 B1 91 AC 91 D2 CE
 40 52 BD 23 2B 40 8F 32 A0 5F 57 E6 15 DF 75 70
 E4 C1 D6 12 6D F4 AB AF EC 77 83 F9 53 87 36 75
 15 9D DB 3F DB AC 28 EA 76 03 3A 72 F7 66 9C 19
 D6 2F F4 EE 61 C6 49 8C 16 05 36 C7 F3 7E D8 63
 ED 27 8D E3 57 66 67 8B 7D 57 36 93 B3 61 58 4C
 78 0A F2 6B F7 46 C1 70 80 5B AC 95 08 0B B2 F5
 D9 7E 75 25 BD D5 8C 38 49 18 3A 39 8F 32 CB B6
 78 54 85 AD 78 C9 24 E3 B8 34 04 BC 35 BA 02 89
 DF 7D 85 9C E9 FF 5D 72 A5 A7 AE BC 7F 08 68 36
 DF 26 21 8A 0D 66 14 75 45 50 E1 AA 7D 2F 4E F3
 6A 46 EC 0C 1B CC BF D9 05 5C 72 7E 08 87 8A F0
 AF 51 D6 2D A3 ED F7 D3 49 D4 66 5D AF 46 C7 EF
 B6 1D D2 15 50 5B 7F E2 A6 56 A8 6A 92 7C DB E4
 14 73 FC 85 8A 3F 7E 81 ED 88 4D 28 50 12 40 51
 EC 7E 34 AA F4 82 AC 7F 85 94 FB B1 FF F5 60 53
 CE 4B C8 DC 4A CB 19 F9 CB 21 A9 46 70 F9 E7 3E
 98 E2 D1 A9 6E 35 0E A1 65 07 09 39 23 9B 7D 60
 E4 29 4E 5C 80 E6 33 F2 76 46 B2 FD F9 7B F9 7B
 CD E6 26 16 29 7D B1 70 C9 AF D2 6B 19 9E 2B 2B
 46 46 DD 1D 79 53 CA CA 12 41 3D 58 76 EB CE BB
 37 0F 4A 7E 2F ED BC 37 E9 03 F3 72 C1 7A 4C 31
 75 6C 9F E2 DD DA 35 25 5E CB 0C 3B E3 3F 80 78
 BA 67 0A 28 E0 F8 FD 54 06 6C 7C 0F 72 A2 E4 D5
 71 1D AB C3 BC AB 57 B5 B8 27 02 97 DE 6C E8 2C
 21 EB 1D 6B D5 43 EC 7D 3C 82 EE A6 18 72 F5 E9
 52 FF B6 44 B7 7E 66 AE 60 35 01 C1 11 36 A8 42
 C2 4A 02 0A BB 07 AE 01 47 21 5F D0 26 AF A6 99
 0D 66 28 A2 8C D5 68 CA 01 A0 02 9D 04 AA AC FE
 47 29 09 04 0D D1 1F FE DB 41 1E C2 F4 27 A6 D1
 07 A0 0E 37 2B BF BF 7F 72 E3 D7 72 3A DE 8E 6C
 45 EC F3 29 70 1D 02 59 9C D5 FA 12 56 8F A4 BE
 65 97 03 5B D2 02 24 FB 77 C6 41 D7 E6 39 99 C1
 EF 20 C8 AD C1 BE A9 FD 7C E1 A0 EE A6 8A 11 E2
 22 5B 3E 17 F6 5F 2F 85 98 0C FF 9B 78 23 AB 11
 30 92 2B C6 88 33 0D A9 95 E4 59 49 68 FD 0C 61
 8F 4F 7F A3 F4 AE 89 AE F3 57 0D 14 64 BA BE DC
 60 E0 D2 FB BC 42 02 F9 C0 CF 3E 7A 85 85 67 B2
 DE C7 A2 F1 41 FE A3 6C DA A5 DD 0D 78 0B BD 9E
 51 C7 AF 4D 10 4A 29 D9 56 44 AE 01 88 58 CF CC
 E3 05 AC E7 22 90 EB 6E 33 69 12 83 99 96 B4 3B
 E6 6E A1 1A 40 2D EF 4B DC 8A 89 45 FA AA 08 A4
 4B 7A BE 75 04 F5 2E 02 45 8E 44 8B 0C 5B E3 72
 B7 1F 73 9A 07 73 79 36 AD 53 63 64 85 89 EB B9
 B4 65 68 41 68 96 F3 3A 0B DC 8B FC D4 87 1E 9D
 A8 78 D1 D4 79 56 92 9B 00 DB CF 2E 5E CF 51 48
 75 B9 41 60 74 20 3A 9D 2B A7 8B D7 98 EC E1 4D
 51 2E 34 02 45 DD 37 0C 57 EA FE 23 B4 8A 67 D2
 9C 5C 25 A0 C6 79 78 9B 2A 45 F1 A9 9A BC 0E 23
 14 FE C2 3B 5D 82 CF 83 37 1E 08 F1 A8 AA 23 1E
 C1 18 0A 62 5C 5F CB 09 9F CE 91 B5 5D 75 7F 3D
 6B 39 B1 9D 47 37 53 E8 E1 21 36 C1 0F 7B 59 B7
 9F E9 09 7E C5 28 C7 10 4E B3 72 3E 53 C9 2E 1C
 C2 B9 49 EF 1B 35 1C 1A D7 5B 62 27 9C AD 8D E9
 B3 9D 21 37 4B F0 53 1B 18 B4 DE 6D 6F 4F 5F A3
 61 6F 0C 48 8E 13 5F AF 9B 7B 3D 80 18 86 2F 43
 A6 63 EB 4D 81 42 24 F9 09 F4 23 E9 E0 90 BB 88
 16 AE B5 20 B2 16 87 A9 2B D7 E2 5C 81 47 27 27
 5F 45 96 31 70 9B C0 0F FE D3 09 E0 01 BF A9 D8
 42 FF AE 1A 9F 5E D5 D1 FD FF 53 E7 19 E7 92 C9
 7D 4A 52 C0 F3 48 25 DA 88 BC 8F 28 52 D5 43 00
 3A 24 D4 26 FB 93 70 5B 48 F0 B9 E8 AA 8F 37 28
 35 84 7E E2 00 E0 62 B6 36 A2 33 91 A2 F3 3A 09
 8D B3 C6 52 0F E1 77 7F 79 05 A0 F8 13 3B EA B8
 55 85 A6 A7 97 86 46 43 D5 08 0A BC BC 21 66 EF
 E5 DA E1 E8 BA DF 1D D2 D3 7F 57 5D FB 77 A4 22
 0F FB 6F 77 C7 CD 2C 1B AD 0B 3C B1 04 09 DD 72
 59 FB 29 09 D6 5F BC 3B BE 01 66 E7 51 00 3F 5F
 54 97 C3 66 38 D8 63 3F 42 A5 A5 87 BD E3 F6 D8
 00 B4 72 81 B5 D4 1D 5B 72 07 A8 60 A3 22 9C 9F
 85 A7 A7 9D D8 5D 0C 5F B1 61 9A 6E CF 57 BE 0E
 CB 68 44 CA F9 4A 94 CB 10 6F D8 9F 40 E6 57 F9
 32 D1 B5 04 D0 D2 2A EB 2B E7 61 EB F3 FA D8 5C
 CD B5 C9 60 DA C2 AD 70 8C 34 C5 AD F9 E0 05 FF
 17 D2 72 4E 4A C5 D4 03 A3 F5 20 45 5F 24 44 93
 47 B6 88 9D 55 FE BF D1 C0 DE 73 84 B0 49 4C 2A
 E9 F6 EB 37 6C 9B 11 94 27 BA A3 88 67 4B B5 09
 8C 90 51 35 A1 01 02 44 58 AF 8D 49 1B 9B 92 9A
 3F E9 45 D9 03 74 19 52 44 2F 88 DC 83 C0 37 88
 56 D1 92 EB 5F 6C DD C6 AB F3 CF 09 C1 9B 17 E8
 D5 4A EB 20 B8 5E 76 52 87 40 A3 F4 67 04 EC 74
 B5 9C D7 66 27 52 E5 56 24 CB BE 96 2A B2 9F 2D
 14 CC 51 D5 FE BF 5A 79 B3 07 78 99 81 86 A5 3F
 15 32 B3 65 47 F1 06 93 94 44 9D 41 67 9A 40 9A
 D4 12 9D BF F1 7C 31 3E 10 BB A2 52 0D 24 B8 61
 CD B0 B2 D8 7D CB 31 DB A8 1D 41 0D 67 C4 8A 31
 DE 45 B7 BD 65 C4 92 F1 34 EB D5 FB 91 97 3F 3D
 96 C4 99 AE 06 9E 41 F0 DA F0 4E 92 AA B3 0C 62
 C8 C8 0F E2 35 AF 7F 78 9A A3 39 AE B5 86 D6 46
 1E D5 B1 97 C7 F1 09 E9 A8 21 59 8E 2D 88 9B 6E
 A6 5D FE 84 54 E1 B2 DA BE A4 9A 14 E0 0E 28 19
 89 C2 30 0E C6 21 A4 0F 9E 65 B1 6E 0D 4E B8 32
 2B 85 78 C3 0C E4 0A B0 DB AE 43 A1 D7 D7 4E 73
 68 B7 57 18 50 49 21 EB C5 4E DC B0 85 A8 83 AB
 87 07 18 94 0F 2D B0 78 5C 4C 71 B3 A0 15 01 BF
 F0 BA 53 45 CB 73 C2 8D EF 2A FF 5E 0A E7 98 72
 78 04 4F E6 85 F6 EE F0 27 86 96 BF C3 68 25 3E
 40 D4 4A A1 91 49 66 18 21 AF 69 07 1A B1 6B 9D
 80 1B 16 73 17 42 BB AB 19 3F 0F 13 E4 B1 89 EC
 4D A4 2B AC AF B6 BC B0 AF 25 90 15 A9 53 AA DC
 E0 52 B6 D3 08 8D CC 58 49 7A 14 EE 32 22 EF 78
 D2 56 97 5F 40 73 64 5B 90 A3 0E E2 42 24 2D 26
 38 D0 36 05 41 F9 F5 55 B6 C9 D6 2B A8 9F 07 AA
 5F 38 D0 28 74 8D 33 5D CA 8D FC FD 1A 07 86 E8
 D4 A2 48 A4 87 91 0E CB 03 9C 4A 14 30 83 7C 6F
 A1 BA 19 AC 96 EA 16 88 BD A2 A5 9C 67 47 32 6D
 CC 41 20 69 29 64 83 2B D9 E0 A9 27 A1 B9 7B 4A
 99 80 E5 C0 94 7D 39 D4 96 0D 2E 11 EB 94 8A 6C
 44 AA 14 DF D0 CF C8 98 FB C8 F6 98 35 47 CE EE
 D7 0E DE E2 87 FF D4 83 B2 B8 1C 3F B0 3D 5A 45
 1D 69 FC F8 09 7C 88 97 24 74 81 DB C9 FD 12 11
 75 69 52 A8 28 6F AF 59 65 8A F6 82 1C 3F A2 CC
 70 1B 99 6F DA E5 0F D9 B3 DE AA AB A3 A1 2A F5
 5E 60 CB 39 A8 BE 48 C4 C4 32 95 9D 2F 25 9B C5
 41 80 99 6F 17 31 4C 69 C1 0B DD AB 3C 89 F2 2B
 72 A1 2A DE 50 4C 7F 27 46 B1 4F 98 2B F5 02 68
 21 E9 97 29 F9 22 60 F3 CA A3 04 28 B4 12 63 31
 39 26 11 D9 38 71 B6 DB A2 C3 94 9A 3E 16 0F 3B
 B4 CE 08 1D 45 FF 01 7E AD 02 58 07 2E 07 66 91
 6B C4 44 6C 12 11 21 50 32 2A B0 94 56 79 89 50
 7B D1 30 B2 1A 92 3A 92 D7 ED 13 6B E0 DF F7 FE
 3D 10 1D 0C 1B 66 74 25 B2 3E D4 75 AD 7F 05 E4
 50 B4 71 53 B2 20 D9 3A 6E F7 2B CB 52 20 1C 92
 27 9B 80 4B 19 66 67 4E F5 CC 19 37 02 15 F6 D7
 28 3C D7 45 16 DC 8B 8C 49 DF 26 06 F7 B8 8A 2A
 E1 8A A8 3F 0D BB 3B 1A 7A D0 68 4D 06 55 27 D0
 23 32 AC C8 4C C1 67 79 E1 BC C4 AD 3E 4D E3 BC
 E1 8F 62 E0 71 52 4A F1 F2 53 00 9F C6 69 E5 8D
 1D 5A 13 0B 5B C0 2A 77 54 38 4E 5A 72 49 4D 0B
 0B F0 41 55 DD 4D AA B2 65 AA 63 25 43 05 C3 74
 43 1E 67 66 2C CF DE FD 4E E3 7A 49 83 84 4A 32
 83 CE 4F 7A A3 01 20 E1 E1 10 34 29 01 71 47 FF
 2D B6 57 DF 40 F2 74 1B 42 9E EB 5B C3 03 A1 B7
 13 F0 D3 A5 95 2B 71 25 A7 94 7A EC 59 20 5D A5
 3D 54 F4 F5 76 B7 F9 08 02 F0 50 AF CD 13 3F E7
 3E C6 FB 87 C4 69 3D 52 5F AB 3F 3E F3 47 A3 79
 CC A0 C6 41 33 04 85 16 7E 77 81 C6 04 4F 87 17
 F2 1F F3 2F EE 27 56 20 61 68 3D 17 24 3A BE 43
 B2 32 89 B1 50 65 23 94 34 D7 59 41 14 59 5F F7
 8E 21 F3 1B C0 BF 2C 12 9C 8E 32 8D ED 00 F0 F6
 EA CB 89 04 19 B5 DA 68 5C 8C 69 27 4D AC F7 B5
 B0 04 8D FE F2 8D FB D0 D3 C9 65 1D AC 0D FF 06
 C4 8D 30 65 BE B6 F4 E5 F8 1F E0 E4 94 25 87 41
 21 0C D0 10 FE 0D 86 A4 ED 09 F8 71 E1 F9 C4 2A
 D8 06 77 7A 14 0F BB F3 EF AD 44 1D 2B BC 27 47
 6F 84 18 02 1C CF FA CD 49 BC F5 92 FB EA BB 34
 5D EB D5 80 7E 7C 4C 2C 8E A0 3A DD D6 23 65 81
 73 B8 E1 0D 2A 56 6D 1D 4C 79 80 9D 71 55 74 31
 66 32 85 30 FD D0 BB 70 05 B4 AF 98 57 9F 04 12
 93 31 4C DC B4 B1 C3 BB 8F 28 99 D2 80 FD E0 1E
 B9 37 3F 72 5D 88 65 FD 6F 23 8B 34 E4 4C B8 14
 95 2B 64 2B 92 27 43 4F CF C9 FE B0 C9 48 3D B1
 5B 1B 12 6D EC 85 2C D0 DD F7 72 0C 12 D7 D6 1F
 A8 96 10 49 DE 8E 0C 3F 4F D0 55 87 99 A8 63 3A
 09 F4 2E 61 EF D5 7D A3 13 28 BB 88 E8 A8 B3 EE
 7D 79 13 3E 95 A8 11 CF 74 A6 CF 06 70 37 07 B1
 8F 93 3C 19 0A C5 83 E1 4E 1B B8 1B 44 6C 2E 72
 F8 B1 61 1D 85 53 94 C4 6D B3 CF 64 98 A9 C6 B8
 E1 E6 12 F7 2C EF F5 8E AB AE 8B 8C B6 70 54 50
 91 53 CC B0 AF FC 14 86 E5 C2 1A 2B 74 85 C1 4C
 44 9E AC C5 0F 04 19 E9 F8 4C 77 0D 9A F8 11 FB
 37 87 29 D6 25 85 7C C1 C0 A1 73 D9 42 4D 82 AC
 0F 02 18 43 CD FA A0 49 8A 40 AC 9D D0 1B D8 07
 37 CA FC 89 DA CD 12 D2 D2 68 1F C4 5A DB 40 0F
 B0 A4 D3 64 57 06 6E 38 D6 C1 14 32 A0 C5 6E 83
 25 F4 96 55 CB C9 5F A8 86 E4 35 2C 6D 2C EB B9
 F7 D2 83 46 C2 10 BB DC 91 66 81 2E 27 34 46 26
 FA 46 1A 54 2A CC 3F A7 2E 79 02 D0 BD 3E ED 77
 DB C9 B9 DB 37 66 A4 F8 DB DD 3F 34 B3 DF 95 A2
 74 3A E8 46 53 A8 EE 8F 15 32 6D 33 AA 74 2D CF
 BF 99 19 3B 1D 24 81 A5 03 D8 61 37 77 51 A9 F0
 44 92 F0 8F 1F 84 11 1E F0 E9 8A BD 07 40 88 A6
 9D 21 58 E2 28 57 B1 9E F1 EC FD 9E 7A 59 8D 60
 43 BC 92 92 B2 B6 AB 7E B6 9A 30 93 C0 0D 88 F8
 90 3A 93 57 E6 C9 AF 40 F2 DE 02 D5 6A B4 BD EB
 A9 16 D6 79 7C B5 F1 A5 B5 35 C2 F6 A1 5B 57 C0
 5E 7E 96 84 5C B7 08 A8 77 53 4C 44 3D B9 3F 3C
 A5 4E D9 41 AE A4 56 D2 7A 01 CF 1B B0 D4 0A F1
 F2 E4 28 72 76 BD F9 C7 C2 D4 F9 61 50 79 DB FA
 B4 7C B2 4F 5F 2B 26 6F 30 80 86 7D 52 E3 95 42
 EF CD E7 08 49 27 F7 2D 3A DA 83 8D 63 40 77 76
 B6 C0 91 7D 05 F5 69 3E 8A A5 71 DB C0 95 39 16
 8C E7 66 0A 62 F4 71 AC 97 B2 D9 11 7E F0 E8 AB
 0B 2F 00 15 AA 0E 47 30 B4 25 1F A8 E7 77 C1 44
 14 A4 0C DC 53 33 15 C2 F9 1E DB 26 92 C8 1D 18
 02 60 FA 71 98 98 74 DB 8A FA 48 DB 7A 8E DE D3
 79 0E F6 B4 B8 58 DC DF 3F D0 C8 E4 DA 04 FD B7
 E6 2D 29 40 74 52 DE E0 A2 2A A0 B6 A2 ED F1 DE
 09 B7 6F 8A BB 8F F3 FB 47 AD 83 F3 89 69 90 03
 ED 85 5F 71 BE D4 00 EE 0C 42 51 9C 53 E8 79 F1
 94 2F E2 D8 13 F9 AE E0 66 BE EA B5 5C 54 E7 8F
 7E 17 89 32 80 59 BB 8D A3 2D 82 4A 87 B8 80 07
 F6 E2 05 D6 8E 78 CE 21 16 53 61 B2 C7 1D 6C 61
 13 23 15 DA 81 9B 5E A6 76 68 99 11 41 E9 C9 D5
 C0 4E FB AE E6 94 76 5E 8E 15 F0 84 83 51 0D 43
 C4 FD 8F 9A CA 82 FA 1D 2C 0C F3 B8 21 9D 2C 3F
 EC B8 56 62 B7 DB 3B 6A 3E 2C 6A D5 59 CC 35 0B
 1D 6D 86 8D DD 41 79 0B 74 68 1F 3D A9 D0 7F 06
 F8 99 9F 35 DA 42 75 9F 17 1F 89 90 32 51 25 A0
 C4 BC 96 36 6C 03 A4 94 42 E6 CF CF B7 67 83 A9
 80 53 E5 3F E7 8B 77 F9 21 46 22 1A 67 80 09 A1
 87 BB 34 88 DA 63 ED 7D B8 16 AC 9A 79 EB 26 E3
 49 13 DB FD A1 73 9D 95 C8 EC 37 70 DE 36 56 22
 A2 98 BA 4B 97 DF 89 86 3E 35 E2 CB 21 96 76 21
 E7 A3 92 C3 0A 4C 94 12 16 8B E1 61 C5 02 0D 60
 77 FD 03 5A A0 A4 A8 8B 6B 71 08 37 F5 57 26 8C
 86 8A 43 11 07 CD 9F 44 4E 43 2A 96 D9 28 EC D8
 99 57 E6 64 4A E7 CF 0E B9 9E D6 A0 FB A2 F8 4D
 79 2C 06 AC 66 27 09 65 73 7A 94 E0 27 DA 45 B2
 92 43 F2 D3 DB 8C F1 F2 5C 05 9D 02 95 37 33 EA
 08 C8 12 B7 23 C0 ED DE C7 43 14 43 0F E7 90 1C
 D2 94 56 A4 89 0A BE 84 D7 A5 24 CA D3 85 F2 34
 7B 05 49 CF 9F 75 09 12 47 39 B1 D4 F8 6E F1 2E
 6B 20 CE 83 2C BC 8A 67 29 CF CB 8A A9 73 8C 6A
 21 0F 2F A5 66 64 99 90 56 9A A6 47 30 1F E2 4B
 AF 9A 9C CA 65 6F 18 94 DD 50 30 8D DB B7 10 04
 67 53 63 0C 95 36 78 B3 73 23 FB 81 4B 65 27 20
 EE 14 AC 5D 84 25 1A C9 0F A4 6A 27 6F 93 71 9F
 E8 50 3D 49 81 ED 37 8D E9 D9 F4 98 7C 35 DD C2
 96 BE B3 EE 44 DB 5C 4F 28 28 FA EB 68 2A C6 6B
 EB 57 80 09 EA 4C 42 83 28 22 5E 29 C8 21 A1 32
 7D 70 08 C9 00 58 1D CC 93 E6 2A 91 99 96 F2 DE
 F8 51 D4 B2 6D 17 99 4B 87 3E 91 75 58 63 70 42
 1C 3C 33 89 7E 78 6B 7D B5 7E 70 E9 97 D6 3C 8B
 AE 1D 5B 8A 33 F6 0B 04 76 66 BE 69 16 B1 7B 32
 4F A1 22 41 1B FA CC 29 BA 4F 42 F2 B1 64 65 4E
 6C BE 76 3C 44 AC 10 B4 94 A1 D9 0D 3E 5E 46 0B
 97 E1 A0 D6 69 00 4F B8 CE 40 D4 BA 55 1E 16 36
 FB 12 DE 94 E4 A1 1E 66 FA 7E 66 AF 91 94 AD 13
 BD E3 17 7D 36 6D 66 BF FD 65 AB 7A B3 14 15 E0
 08 DC 40 A9 A6 95 72 F9 84 5C 68 04 BB 2D 7E E3
 2B 3C 65 F5 29 37 B5 35 C6 6D 5F 92 C3 4D AC 29
 7B DB D5 61 CA D8 7E A5
* End 1743766663 2726384755