* LTspice Encrypted File
* 
* This encrypted file has been supplied by a 3rd
* party vendor that does not wish to publicize
* the technology used to implement this library.
* 
* Permission is granted to use this file for
* simulations but not to reverse engineer its
* contents.
* 
* Begin:
 FD 96 7C 9E D3 09 3A BF 1D 6A 21 DA 1F 47 91 86
 C3 78 6C 57 93 93 DA 6C D7 5A 5A 10 4B 89 59 60
 6F 09 09 A9 CC 5E B1 FB 2F 22 C8 32 17 8F CF D4
 24 DB D6 63 F9 ED 03 AD B6 BC 60 2E 50 A7 CE A2
 67 2D CF 83 19 4D 74 88 B8 2D DA 90 14 59 DC 43
 1B 48 DC 7B D8 4A C2 A9 D0 3E C3 D1 9D 79 86 24
 4B 9C BE 3B AD 6A 94 94 71 BB 3D 9C 70 7B 50 16
 71 16 0B 1D 88 A6 49 56 C1 29 1B FA DD A2 1E 5C
 BD EC 4C ED 58 9B 50 5C AF B5 52 FC C0 A9 C3 FF
 E4 78 B7 8E 6E C7 68 22 CE 59 BB 0E 33 D5 D8 AD
 3C B3 39 30 12 F5 3C 2D 05 95 C3 85 77 F6 76 62
 85 A7 19 67 43 9C FD DC B7 E8 AD AD 8E 45 87 A2
 BD 4C F7 16 1B AD 96 07 A4 FC 0A A2 AD 1C F5 F6
 59 32 03 94 A2 D3 84 E5 ED 4F FB 92 F2 E8 C6 A2
 65 6F C6 55 8B 1B 70 F3 09 0F CA CD 7F D9 91 EE
 1C 76 00 F2 85 BB F2 0F A3 B4 C9 06 D1 36 C7 3E
 F8 A9 AC FF B3 4A 2B F8 E9 F8 15 CC 03 C3 B7 44
 6E 45 6B F7 B3 FE 6F 9B C6 7D C0 AD C3 2D 15 41
 C4 5E 66 79 26 BA 34 B9 2B 4F D8 7E 69 5C 1A D7
 42 80 5F BE 41 73 73 5F 79 A4 99 ED 27 05 93 2E
 38 2E F4 9B 71 3B 07 27 45 A1 24 E4 8C A6 4C 54
 DB 8B F5 D2 B6 A9 BB 68 D1 A2 5F 9E 81 0A 2B 6D
 61 84 8F B7 3E 31 FF AA B5 F7 10 EE B6 B4 E2 0E
 6B D7 4F 56 4F E2 BB 04 E7 41 66 FC 8B 4A 03 86
 AF A8 67 20 B4 D9 95 7C 36 AB 98 BB 03 B7 D8 45
 8D 9B 38 3A 1B 5C 18 4A 30 EA 6C 23 AA FB D7 1E
 88 D2 28 3F F4 89 3C 09 11 6E EA 74 F9 45 A1 F3
 91 05 63 8F 0E 02 49 B9 D0 72 86 4B 81 D5 39 76
 AD 69 98 B9 F1 33 76 8B B2 E9 F5 0A D3 71 C4 F3
 3D 0A DB 7E 57 A0 FC C3 3E FD 61 11 E8 28 43 52
 A4 85 77 B7 6F 6A DA B4 F9 16 A6 7C 67 AB 28 60
 E7 75 81 06 C5 BC DE FB 55 33 A1 20 A2 60 36 B1
 3F EB 4B 5F 31 B0 43 60 60 3B 32 54 26 E5 93 E3
 53 2F 64 59 F7 A9 C5 F9 8B 9D C3 F4 82 64 F2 12
 48 86 D1 1C E5 E9 54 6B D1 34 E8 A0 0C 3B A1 22
 DB BE A0 68 F2 FB 76 D0 AF C8 DC FA 58 17 77 83
 21 4F BB 5E A8 62 61 C1 1E BE D9 BA E2 3F 8E F7
 E1 75 7A B3 BA 2C 3C 75 96 42 4C 70 0A 7B 90 79
 E2 EA 8F 90 93 3B 75 3F 8E 31 A9 E7 15 F1 4B EA
 50 40 E5 09 8B 58 AA 2E 78 94 1E 60 4F 0D CF 20
 55 FF B7 C1 68 0E 2C 6C BB 9C D8 8D D1 D5 7F 6F
 65 B3 22 98 54 ED 4E 96 EC 4A 52 90 25 56 36 F6
 E2 AC C5 5C 13 19 8F BB BE 45 05 75 87 3E 87 1A
 A9 CC 91 AE 13 13 8F 70 4C 3B 06 4F 18 C1 A5 ED
 B6 9E 8D 1B A5 A7 B9 6E B3 F1 36 2D 15 B6 2F EF
 F1 B4 89 F1 47 A6 BD C0 0E A1 C0 13 06 FC 4A A5
 8E 56 C6 91 D8 D4 5A EA 50 1E 7D 2E 7F BA 12 3A
 99 C5 BB D1 26 3B 5A 40 92 54 32 C4 ED 40 54 8E
 41 15 4B 3C B2 15 80 E9 32 39 3F F6 AF 2F B7 4C
 AC 2B 7F 53 02 AA 1F F6 2C 12 B4 90 56 FB E7 BE
 D9 43 EC 11 2D A4 AD 86 C8 80 DD 6E 64 CE 88 65
 49 A5 0E 33 5C 8D 5E DF 86 7E 57 D4 E7 CB 73 A3
 3B 1A 19 65 2A DC A9 CF 3C F5 A9 06 C8 CD 9C 00
 E3 74 EA 01 81 40 9E 17 AA CA 7B 53 9E EB E3 F0
 B2 A4 F0 76 EE 9B DC A6 B3 FF 9D C8 26 55 C4 38
 2D 8C 3B 93 8D 4B C8 1C C8 F9 51 05 6A C1 B3 86
 89 92 A7 C0 6C FC 3B 71 C1 A8 21 94 04 F2 4B 51
 25 43 BF 1D 58 B1 33 B1 FB FD 31 D7 F3 7D C1 76
 06 E9 DA A6 7E 1C D3 FA 3D 9D 93 74 DE A3 DF 12
 DF 68 A4 0B 01 72 0A 4D 39 E6 9F 6B 45 EE 1E AD
 8A C6 80 33 FE 56 7B 70 D5 B4 48 BC 03 CA 0F B2
 92 69 AF 7E 48 A6 9C AF E4 57 25 70 72 F0 64 E5
 98 21 3C 9C 5C 75 76 E4 41 1C CA FC 94 21 DF 08
 9A 35 C8 92 44 6D 42 B1 6A EE 1A 7E 2D B4 18 BD
 53 22 93 88 78 B1 B2 A7 2E DD 6A 7F 5E B1 06 8F
 CF 4E 79 B9 F5 6D 9E 12 0F 96 83 41 EA 9B 1D 44
 B2 57 2E AB AC 01 5B FF B1 34 49 1C 0E B5 A7 A7
 28 12 E8 6D D1 2C 2C 37 A9 38 C0 FE D9 FE 29 19
 A5 F7 FE 3D BD 8D 61 1C C6 B5 4C D0 8F CA 74 08
 E4 EB D3 45 CB 77 F5 5D 92 A5 FB 35 7C 3F 74 F2
 AE D8 00 66 3D 41 FF 7A D2 0B 3D 8F 00 57 B2 F0
 EF E4 5A 81 8D 91 86 4F A1 BD 6B C9 97 1B A2 30
 18 65 A7 B7 7C 43 CD E0 4D 8D 27 6B 04 A9 4C E7
 36 79 AE 8E 21 FF 2F A7 9C 32 85 99 36 07 A2 80
 F6 F9 09 A5 04 E9 48 AA 85 D6 79 FE 59 7E 5D B8
 9D DE 46 D0 61 7A F4 B0 25 BE 52 7C 4C 9A 3C D8
 9C 05 5C F4 9B FD AD 39 D4 D2 B1 C3 85 F9 78 05
 E7 B3 BE EE 22 AE 55 B0 38 D1 99 7A 3F 7F BB C9
 38 FE 56 CF 01 87 75 1C 35 01 73 F5 AC B3 38 0A
 A6 3E DF DF 9A 33 38 FB A9 E1 DF 4C 95 04 9D 84
 2D C7 2A 55 77 53 DA 9D 8D 26 5A D0 F3 72 C0 1F
 22 C0 A0 2D C2 44 00 90 21 D5 79 79 50 23 0B C9
 B3 AC E9 0B 14 E3 1B 16 23 62 A2 E8 C5 5B 39 AF
 CC 80 A4 57 4D 06 9B 25 02 A9 5F F4 19 AE 8E FD
 64 F6 1A 58 D9 2C 8E 4E 3F 7C B5 BF BE 59 3C 01
 54 3C 9F FF E0 2F 7E 46 AB 51 CA 24 7E 45 31 C6
 57 5C E9 F9 0C C2 9D 05 BD E3 DB A9 6F 0C 2C BB
 DC E8 F1 C9 D5 4E 05 C0 72 48 EE 2D 41 FE BE 1D
 5F 8E 4A 51 50 F3 FE B0 F0 FC 0F 5F AD AF FF 96
 31 E4 5F E2 77 B2 13 12 F9 83 A9 8B C3 C8 9E 4B
 50 A9 A4 82 EC E6 8A 38 6E 27 2E 4B 78 FF 54 96
 46 45 A7 13 6D FE EF 9A BE 02 68 94 5F DD 59 8A
 58 CB 7C 6C 45 B0 C6 38 0B D1 4D A2 74 FB D4 EC
 99 AC BC 86 24 10 CA 4C 2D 86 52 80 E2 41 BF C9
 99 35 E3 C4 6F 58 55 E8 31 3B E2 05 12 AF 6E B0
 0F 7A 5D 0B 5A C2 63 32 1A 17 4E FE 4D D6 EF 29
 0D 64 63 2E 71 69 62 A3 C9 FD 35 A5 89 3B F3 08
 E8 4C 75 92 BB EA 86 22 EC 4F 69 7D FC 38 84 D6
 62 F4 B1 04 5F 22 67 5B F1 23 4A 7C 58 FD 1C 1E
 D6 05 AB 75 95 F8 91 DE EE 8D BE 3F 7C D1 C3 F9
 D8 70 CD E2 55 52 B3 0D 72 B0 63 DF 05 02 09 14
 B3 75 2C B4 A4 3C DC B9 4D D8 AA B5 F8 8C 55 83
 29 CD 7E A2 62 3A CA E5 75 01 8A 3E 0D 7A 47 3E
 E2 72 2C 0F 3E 20 54 63 0A D9 D5 71 0C 95 09 7E
 4B 9B D1 21 CD 1D E6 CA 21 50 03 4B B9 4C 81 D5
 33 A3 91 6B 4F 54 53 5A FE 48 5D 56 6A 02 BA 8B
 EA E2 46 22 AA 60 13 B3 9A A6 76 63 39 01 E7 F0
 4F 87 19 9B FB 0D 4B BA 9D 95 12 FC B2 0B 02 17
 BF 94 5E 15 81 1D 2F F9 EC 8B 73 1B 60 93 CC 35
 59 6F 47 CF E7 AB 93 7A F4 CD 7B 10 77 C1 0F 40
 05 B1 DB 34 14 D0 4D 4D D9 CC 40 6B 92 27 96 FB
 B6 F1 C2 B6 71 55 B7 63 2F CD 0F 59 AD 12 F3 9B
 43 63 F0 CF C4 32 1D 58 F5 B7 8B A4 98 D3 B2 01
 85 E1 F7 58 16 09 C4 BC 45 0D D8 73 37 60 DE EB
 75 3C FE 56 A2 86 18 F2 3B D7 7F A6 09 A3 10 96
 3D 52 43 49 D2 A9 D0 4E 8A D6 77 CA 65 21 B7 EE
 52 2B EC E8 06 6A C8 39 F0 C8 9B 25 07 70 69 53
 34 38 3B B2 21 1D FC 21 E4 D6 47 E2 A6 D6 C2 F1
 AF 40 EB DA 8F 3E 27 2D 06 CC 92 7D 58 6F 6D 39
 6F 40 E3 AF 1C 5F 70 BB A7 96 31 F2 3C 6A 67 B0
 21 8A 21 02 DC 99 26 AE F7 5C 9F 86 74 5A 67 1D
 96 02 8F 5C 15 B1 49 EE 10 A2 85 3E 3C E7 31 E7
 87 99 09 B4 57 BF 14 4D 6B 76 3E 25 BC 32 08 03
 ED D8 09 99 C9 AD 8B 23 E9 50 27 E7 13 A6 1D CE
 57 E7 A6 84 2A 7A BA FC ED DC 81 C3 49 7D B6 81
 38 BF 2D D0 D8 5D 9E 68 21 0E 3E 7B 0E F5 5C E5
 28 A5 44 C2 F0 D6 B5 83 F3 41 46 88 88 87 34 3E
 4A E3 6C 58 6F 49 C0 83 9A 51 7A E9 14 8D 9F F1
 85 33 35 3E 31 6A 59 D7 45 2B 9D 66 60 B7 7E 3F
 E4 1A CE 55 A4 3F C7 14 F9 2C 16 2A 3F 64 27 8C
 AF 6A 5A 55 B3 24 63 1F 46 C1 6E 4E 27 CD B0 95
 38 58 65 2A 70 CD F2 22 EF 56 CD EF DE BA 61 6D
 96 21 C3 4C F1 3D B0 0F 82 B9 1B F4 DA DC 75 14
 23 11 F3 F8 A7 6C EA BC 86 5F E1 44 1B 14 50 FB
 71 DD A3 80 81 46 9A EE A7 47 98 7F F5 32 48 76
 C6 ED 96 E7 AE 90 93 17 C1 E3 C5 D5 5B 65 CD EF
 B6 62 0C 2A 53 10 A7 5F 5C 88 3C 0D BF 43 75 14
 52 AC 6F CD 11 AD 69 09 2F 2B 2A E9 97 3E F3 6E
 8B 07 C2 3C EC 4D FC 81 7F 92 7F F3 9D 1E 61 87
 85 21 B5 49 09 F7 D9 86 8D A0 A4 8A 90 37 C9 06
 AC 64 12 81 BA E6 33 DF 3B 15 7F 87 D0 0E C0 E3
 30 B3 71 3B 07 4B 76 18 91 08 53 2A A6 F2 0B 8B
 3B FD 81 86 6E F8 B7 E6 E0 BB 7E 9C 34 85 D8 5C
 B2 75 70 11 D7 3F 56 30 83 7A 55 15 B0 88 A9 16
 EE 20 9F C5 92 1C AE 23 86 F8 C6 90 3F 68 DF 0A
 AD 7E B4 59 A3 C1 E2 E2 72 82 B0 C6 38 44 4B A5
 C7 EE E1 A4 90 FB CE 5A DD DD E4 DB A8 10 46 12
 FB A5 71 83 F8 77 6A E6 6A BD 51 FC 61 10 A5 EC
 4C 2D 10 36 65 87 E8 23 73 0C 40 2C 9A 61 09 EF
 2B 24 9B 74 71 74 BD 85 34 A3 9D A9 1F 0D A0 BF
 AC B9 70 4E 61 4A 54 D3 22 E3 21 F5 FA E8 EF D9
 5E FA 46 43 EA 69 00 0D 42 21 64 60 59 96 6A 0D
 CA CA BC 4A 56 61 35 51 3E F6 65 D9 2B 8D FB B0
 91 A6 BA 19 B3 31 3C C2 A4 1D EC 3A 44 F5 34 22
 D1 B3 55 70 92 21 66 FC 64 41 E4 B1 A6 7D 59 CD
 D1 60 54 06 7D B5 0B AD 5F 44 DE 96 78 F5 5A D1
 16 D9 28 B1 28 FD 33 A9 5F CE 41 DB 6B A2 26 15
 CD CB 7D DB 55 11 23 FF 3A 1C 8F FC 99 42 B6 AD
 52 D6 94 4B 17 0F F9 02 72 FA 73 68 20 80 0C 32
 11 A5 B2 16 3F 2A 4C 48 5F 60 22 18 C5 08 E3 71
 8B 7B 61 8C 03 F9 80 0F 75 6B 16 E6 97 84 E3 F4
 5E 3A 3E EB F2 E3 2F 25 82 C7 84 E4 9B 1F BD FF
 65 DB 66 BE F3 A5 39 D5 BF 31 E8 AE F7 C4 E4 AC
 A0 FA 93 51 D0 8D 03 84 19 22 87 B9 36 B1 71 61
 FD C8 09 20 45 B5 3D BA C1 C8 58 DD 24 8D C0 8C
 41 C8 EC 33 D5 E3 DA FA 7B ED 3E DD C6 93 90 D0
 10 77 4B 3C 90 E0 F9 7B 1D C2 21 B1 94 84 AF A2
 AF 8A E0 94 27 92 9C 51 FC 6D 96 43 54 50 C0 7D
 50 93 A0 E7 F2 5B 90 04 04 5A A3 F8 F1 B5 5C D9
 5D BC 70 E3 37 17 E6 1A 54 85 B8 6F 2E E3 FE 1B
 65 3D 11 5F 4D 56 19 E6 1E DC 44 61 4B 50 AE 6D
 E9 9F 4F 93 4B 93 12 35 14 D7 A9 FB D1 5D D7 36
 02 B6 EA 35 CC 55 2B A4 0A 15 96 B8 77 50 C2 41
 3E 92 94 CA CF 90 EF 5B F9 7E 87 C2 60 CB 3B 62
 62 CE CC 71 59 46 75 19 1F 62 CA 50 D7 3D 2B 62
 BA 62 B0 1A 0D 75 18 03 F2 D7 C5 69 B1 35 B9 E5
 2F 64 7D 29 A9 51 26 17 A3 94 A9 72 0C 21 97 2E
 D0 22 6D 49 67 5D 46 CE 97 A8 68 9D F3 A7 65 23
 7A 54 01 25 CD 63 62 8C BC 31 2F 05 F7 AB FA 76
 88 1A 6B 67 47 99 C4 14 4D C9 23 26 D4 72 66 E0
 A2 BD A7 9B FD 73 26 C9 41 BD 63 52 E3 F2 99 16
 45 3E 1A 82 2D A5 BE 48 77 F9 4C 5C CC 06 70 F9
 E2 37 D5 7A 9B F6 0D 97 01 7D 5D 45 7D 21 2B D3
 37 5F 85 24 E8 1E 4A 7D 8C 14 62 C6 80 C7 63 47
 8C FE 67 47 A6 93 53 5C AE 1A 2F DF AF 50 7F AF
 F9 13 E8 1D BB 38 D4 47 38 45 6C 9D 35 AF BE 3A
 3F F4 07 A9 35 BA 27 00 7E FB B1 B6 21 E4 54 4E
 B1 35 99 3C E4 F0 11 D0 7F 67 07 23 A8 0B 20 F6
 17 A2 D0 04 EC FD 3A 4A CB 5C 61 C8 6C 97 6C 4F
 76 73 EC FB 21 BC 5F AE CC 35 80 61 C3 B2 2D C4
 8E B7 30 19 4D 1F F5 9D 9E 79 B5 88 EB 01 58 90
 01 23 79 09 60 C3 79 F1 BE A2 00 9D 36 BB AC DC
 10 74 3A A0 D9 D9 DE F5 A6 78 7A C1 05 77 74 5D
 70 35 53 93 4A D1 DC 00 E8 2D F8 F6 4A AA 0D 1B
 1A 8E DB 6A 0B 5A A1 2F 65 6A F1 DB 1B 31 9A FB
 97 6D FB F0 D2 3D 68 B0 BA 43 8E 45 36 A2 53 4E
 27 E1 3C 17 54 0B C7 4C 25 1A 31 B3 B0 32 6D 7F
 64 CA ED E8 31 B0 9E 31 90 72 73 72 D9 A6 3A AF
 16 45 A3 77 20 38 1D 82 24 49 76 A3 2C A8 3B 95
 B6 1E 9F 8E 32 8F 80 B2 A0 3B BE 9E E8 23 25 2C
 36 54 6F 99 B2 C0 AD 86 A0 CD F8 FF E0 61 70 13
 EE FB BF 6C 6C 9A 34 F2 C8 74 72 C7 3B 2D BF 9C
 54 6E 0D AB E0 37 D6 26 DD 68 6C BB D9 D4 42 57
 A9 BC 17 CF 86 94 F0 5B F3 6F 77 6C 45 3B 4C 70
 19 11 E8 2C 3F B3 30 9F 4F 1C 9C 26 3B FD 97 D3
 9C 82 AA 62 FD DB B9 BA 02 D5 34 7D B7 6E F9 2D
 40 AF 7C 97 43 ED 9F F5 0A 5F B8 36 49 5C 07 D1
 15 71 DB 95 7C BA C2 8D F2 33 4D A0 60 4F D0 6F
 95 45 38 D5 06 AC 6F A9 A1 2B 0E E3 B1 3A 1E B0
 0F E1 F2 23 94 48 D4 8F 6F 6B 55 64 E9 A3 8A 4D
 BF 8F DB ED C7 55 3C 1A 40 41 40 AC 3B CD 29 48
 88 39 D8 74 E1 0C 57 F5 EA 9F CA 47 85 3C BE 6D
 4B B8 AD 69 3C 7A D1 FB CF DE BF A4 B1 E4 5B 07
 84 09 00 49 82 CF D2 E9 91 D0 76 56 B3 38 2F A0
 CB 17 8A D5 17 BE 4D E4 6E 4E 1F 9A DF 68 9F BC
 28 A1 87 5E 48 E7 08 9A 60 5F 24 88 48 E5 BC CE
 15 7D 81 25 9B EB F5 0A E1 90 3D A7 B8 8E D5 E7
 6F 10 3A 0A F9 58 BD A5 EC 4B 82 FF 8C 71 41 BE
 44 63 BB 9A 72 3B 86 27 64 F4 A4 EB 15 70 20 C1
 72 BB 79 5C CB D2 72 C6 86 33 9A AD 01 3C 15 DF
 61 31 0B 3C A6 0F 5D 24 2A BB 23 85 06 1F 47 BB
 E9 99 1C 10 7E 63 4D 13 B7 9C DB 88 4A 5D 5B B3
 0C 1D ED 9B 21 61 56 53 42 65 BE 72 0B D6 1C 61
 A8 BF 08 C9 03 6D 60 1B 9F 1B E9 46 47 A2 44 44
 0E DD 56 0E DC 64 39 71 B0 DC 47 53 30 BB 0F 65
 DC 45 D3 40 FD 3A 85 25 E1 16 71 E8 F1 56 34 40
 E0 B6 F9 08 0C A4 D0 7F 87 B7 F8 FD D4 24 B9 41
 5F 5E AB 21 08 19 81 DE 6D 95 80 54 FA 9D 93 E9
 54 B3 9E AE CF 86 BF 6D 0F 13 91 F1 19 3E 7C 3C
 36 5C 02 BC 17 30 26 1D B0 F0 5D D0 30 2B C3 95
 58 3D 8B 2B F8 34 B1 64 E7 FE 25 86 2B BA DB 99
 9A 69 A1 CE E1 87 DC 70 51 2B 76 2B 8F F9 3C 6E
 C1 85 5B 0C E5 20 E5 F4 65 21 2F F4 0A FF EE 08
 4D 52 1D 0E 6A 63 80 D6 63 D4 AA 4C 57 22 F9 9A
 45 AD 61 A9 D4 CD 5B A4 A8 12 79 2D F2 EB DC 50
 16 81 45 70 82 86 04 8F 60 51 36 27 40 5C 84 51
 6D 72 BC 55 92 AA DD C2 BA B2 12 CE 9A 23 F6 2F
 B1 C7 EC 8D 77 00 25 0D 97 DF 61 81 05 86 41 AD
 F3 EE D3 8E 91 68 56 DB A8 37 09 79 96 FE 89 C3
 25 1F D7 0D 24 E3 5E F3 9A 18 21 35 F4 90 06 DC
 FE CF FC BA 60 71 87 5B 5F DE 5B C5 A3 0B 82 B4
 13 7C 6F D3 84 AA 67 45 CB 61 1B E8 20 B8 F9 88
 EA 91 78 AA 61 E7 95 5F D9 35 A5 BF E3 37 B8 6C
 5E 1B 51 A3 82 29 D6 11 B2 5C D8 3C 33 66 C7 8B
 C1 6B 30 7B 08 76 FB 25 4E 0D FA 33 87 FB 1E 40
 D4 83 A6 05 A1 2D B6 EC 66 AA C9 E0 86 00 F4 C7
 36 64 D8 97 B0 AD 72 63 C9 61 00 65 B1 C0 32 24
 9C 1B 08 0E 58 89 F6 6C 50 B2 33 33 DF FD 8E 7B
 FE 7C BF 06 9B 07 CF 52 EC F2 39 CA D7 D1 D1 50
 15 AF CC 45 9A F2 F5 E3 BD D5 FB 69 B1 91 17 E9
 E3 FA 50 D2 9E 6C 06 87 15 A3 C8 E7 F0 3F 0A DE
 25 DC 43 2F 29 63 1F 06 B7 9C 53 D3 BF 17 A3 4D
 3B 35 3C F9 39 AE 4D 7A 94 4A 18 82 FD 54 88 EB
 F7 F1 80 E7 BC 6A FD 84 68 1F D0 02 04 E3 A1 3C
 1D C4 94 B4 82 DC 68 79 8A 17 B0 7A D0 30 37 4E
 CF 23 B5 9B 5F 41 5A A0 88 95 14 E8 15 33 FD D7
 15 B0 2B 33 5F 32 75 1F 3B AE 59 24 3C D0 05 57
 CD E5 4B CB D0 69 7A 2A 91 02 78 80 3F 34 D7 1F
 CE 6C B6 AD E2 E3 09 C0 A3 67 24 07 14 2F E3 E7
 88 6C 45 D0 9A 22 20 6D 17 7C AD 36 E3 0E ED 43
 43 4F 2F 6C BF 0C 79 F3 47 B2 86 2C 7F 74 26 75
 53 C6 22 BC 02 F9 08 F0 77 D3 87 FC 2B 34 B1 05
 95 73 FA 39 09 5C 7A 9C 75 0F 75 0B 55 4E 58 5E
 12 67 38 12 13 50 96 1F F3 0D 27 1B 60 44 B9 5B
 2E 58 4D 22 CB D0 61 86 E1 0C 79 E3 40 45 4E 55
 D6 14 D3 AC CE F8 13 8C DC F9 2B D1 BB 6B E7 3C
 FE 39 E4 30 1F 88 C6 C5 E1 7E E3 54 2D D7 D6 FA
 22 14 50 CD F1 7B 10 FB 4A F1 E9 F9 2E D2 7B FC
 D6 97 4E F8 B9 DD A8 9B 39 E6 59 CF 92 CF F1 3E
 61 72 AD 41 46 DE 61 6D 78 CD B3 07 72 36 69 A2
 97 C7 F8 11 D2 F8 22 03 52 28 01 82 E9 2B 5B 32
 53 EC AA F6 70 BD A6 A3 A7 7F B9 7F C3 41 9C D9
 4E 7D 0F E1 74 DF 51 D8 BF AB 33 EF 3F 9D 33 D8
 E4 87 86 DD A1 1B DE BC F2 EA 74 1A 07 F4 31 DF
 08 CD 9A 68 E6 52 F8 38 0C F9 67 34 19 80 82 9A
 EC DC D9 F1 94 3D 30 ED D1 5D 90 C3 46 CC FE 6F
 34 63 71 F6 1E D1 CE D1 FE CE 3E F3 B5 CE 90 68
 5A F6 B6 78 6A BC 4F 19 69 57 7A DE 55 E8 AF F0
 FB 80 5B 6C A8 FC 7F 25 9E ED 1F FC CF 01 7E CE
 41 A5 8F 78 08 89 B0 80 AF B9 2D 6E 8F 76 55 2B
 8B D6 17 08 D5 85 A8 BA 08 3E 0E 06 90 A3 C8 8A
 4F F6 2A 60 98 80 19 18 72 86 6D FF B2 5D A5 D5
 78 73 22 D3 6F C0 F2 1E D1 DB A3 F2 70 D9 5B 44
 99 3B 70 7E F8 C1 81 EB E1 8F EF 98 C9 D0 EE A5
 EE B9 DB 1B C3 90 D7 9F 7E 52 0C 2C 41 B8 62 FA
 60 15 DC 5D 69 90 63 81 D7 2C C9 E4 39 3A 76 53
 C3 BC D0 81 80 F7 B2 1C 12 E4 77 D8 1B E9 3C 56
 64 33 E7 79 25 27 0B 7F FD 18 3A 0B EB EF A8 65
 D0 CF 6A 96 D7 0A DE 75 3C 24 8B E9 A1 AF 6F 77
 D2 8E 5E 30 A1 FC EF 08 5D 7A 1A A2 8A EF F7 9A
 BA 18 D3 BF 37 3C 77 18 CD 07 3E D9 81 67 65 A8
 B9 72 A3 00 08 CC 2E 8A 87 4B 60 C6 EC AC 8B 0B
 99 88 4B B7 BD 4A 8B 04 29 A2 E1 33 78 64 FE 94
 C3 5A E0 5C 3D CC 56 32 CF D5 2E 45 79 46 1F 9D
 F1 00 84 E4 4A 85 20 1A 08 BB 7D AE 63 1E CB 07
 25 B8 A5 77 AF 0E 91 21 A9 B4 5C 00 38 C7 ED E0
 55 EB 41 2A 2A 82 D7 08 8A A8 7C 2D 94 91 4B 09
 D3 CB DD E3 5D 68 DE A8 0E 03 64 22 80 38 4E A4
 02 61 F2 07 5D 8F FB C9 8E 2C BE 79 F9 69 93 38
 F8 A8 81 8E 96 9A 77 19 64 5D 70 6F 0C A4 0E 34
 B0 A9 BA 22 6A 3B F1 00 A6 05 62 51 07 17 86 E3
 15 31 F8 AB B8 AC 30 F5 5C D6 77 13 5B DE 4D 91
 71 5E 41 DC 02 82 9B DC 3A 85 86 23 C9 3A F1 11
 55 E8 3C 00 5B 43 05 A0 56 51 66 F3 91 B0 68 62
 E5 9A 0A 2E D6 B4 88 42 95 CA 95 62 64 40 C3 F8
 C5 AF E7 E2 6D 4B 93 95 15 A3 00 32 1D 51 B5 92
 03 FE B2 D6 A5 DC BD 6F 87 78 6D 87 91 2C 79 14
 B1 18 4F 3F 95 22 F0 AC 2C 2F 73 A5 E2 8C 9C 26
 2A CE B2 EB 18 4E F1 8B 2A 0A 52 16 7D A5 0F 2F
 81 18 1B A5 47 D5 2E CE BC 14 D7 60 DB 61 20 5E
 E0 E2 A7 65 0B DB F0 FB 82 75 38 72 55 AE 53 31
 9B 34 0E 18 BC 9C A9 82 DD DE 6D 74 D0 3A B0 F9
 7E 23 B2 0F 54 86 F5 EB 54 7B F7 8C 57 DF A8 39
 27 05 42 A5 45 5B E9 A5 60 A8 39 40 6B 96 11 F6
 DE 06 18 4D A9 A7 08 72 63 E0 77 E9 2E B0 56 AC
 87 34 76 FD 0B 2B 6B AA 56 52 23 AD DB 5C 0F B6
 BD 73 CF 9B 78 59 FE E2 B0 ED B9 DB F4 A9 3F 34
 A9 6F CF F1 BE D1 45 A8 04 85 53 38 46 9B FE 9D
 BD FD 60 F7 F7 B8 87 FF 60 24 B0 4D 48 5E A5 41
 7C 2A AC BD 51 1F 6A 3C CE 6C 12 A7 AF 71 63 D8
 7E 45 05 E4 F8 60 80 BF FB 90 CA 90 7A CD FD DB
 38 A4 0F F8 45 B9 B2 10 D3 90 38 45 4D F8 EF 5C
 3E A3 BD 0F 38 CF 20 F8 92 C8 58 9D 6D 55 AD DE
 E0 C9 09 27 A5 C8 4F 96 FB 67 24 34 BE 4F 25 D1
 97 FE FF 55 A6 0C 02 6C 85 17 DA C3 22 C9 6B 7E
 31 2F F5 BE 8D 76 97 64 4A C8 60 7E 44 0D 6E 25
 88 97 99 31 E0 AA 24 86 B3 59 A1 41 F7 DA 76 A7
 E2 6C DC 60 C7 64 8D 8E 4A E2 9E C8 18 FE 84 66
 BC 5A A5 A7 D6 DC 14 40 32 8A 6A 70 6F 2F D9 9F
 F4 62 7A A1 69 21 69 00 09 BE D1 F7 E1 6C 77 09
 F0 27 30 62 FD E8 7A 36 5F 58 A6 70 FF D2 EB F2
 2D B8 D0 CF 20 EA 57 33 F8 84 59 B3 92 94 77 AA
 BF 2C 84 02 03 4B DE 8F 46 63 9C BA 2E 2A 9D 9F
 9F 33 E8 6D C9 BC 69 16 34 EB D0 B9 B9 FB 9F B0
 DC B6 2D 44 9E 55 46 1B D4 13 B5 4A 14 B3 8F C7
 80 C9 E4 8D 9C 77 60 CB 52 6F DA 5D 35 4E AA 04
 42 54 70 22 B1 64 56 D7 73 B3 09 67 51 B0 3A C4
 B3 D9 73 39 BE E2 97 7C 0D 44 72 74 66 9E F4 CA
 E8 3F 47 E7 AD 93 AB 70 07 C0 B2 2F CC C8 CD 43
 60 BC 06 60 2F CB 92 D6 71 4F BD 28 DE B4 DC EA
 1B 94 87 F2 38 29 48 88 0F 5F 81 0F 1E F4 A7 1B
 88 7C 28 2E 52 FD CA D0 F4 35 ED 40 A9 56 FA 14
 0E FE 10 B5 8F C1 CD CF 74 63 61 13 84 A3 1D 20
 FB 28 DE CD 14 C2 2D A2 F1 F3 CB 5E D7 BD 65 D1
 B7 99 23 27 2A 27 35 71 9D 3A A1 59 E9 76 FF AD
 28 72 20 42 8D AE 98 D0 47 85 BE E9 F7 23 9A A2
 4F 40 DF 8C BC CF 9D BD 1A EF 69 10 6B 38 8C 69
 6B DD AC DE 77 6C CB FA 71 40 AA F0 C0 58 D4 D2
 4C F6 50 2B 28 77 5A CA 65 98 FE E0 BB 16 26 CA
 F3 55 A6 FF 43 8F 3C 91 FC 5B A8 A0 F9 0F 3F 8A
 21 70 C6 E5 D8 9B 41 25 BF 9B BE 25 E8 30 1C 0A
 97 6E D2 34 82 B4 32 31 10 45 40 E7 5F 0F F8 12
 F8 6B C8 BC 72 A5 C4 FF 4B 46 80 D8 3E EA DB 2B
 C6 84 13 F3 CC 8A 74 A1 2D 7B FC 09 71 41 BF 12
 B7 A1 FA AA 80 27 EB 57 92 2E F1 64 68 A7 F8 D5
 C9 1B 52 27 24 F9 8C 6E 8F C2 EB CB 86 A1 E9 89
 2F 47 29 01 1B 1E 09 45 05 5B 77 71 98 39 6C F4
 66 57 BF A6 C3 CF FE 0F A2 99 F1 AD DD A2 73 CC
 3F AC 8E C4 13 FC ED 86 3F 32 C6 85 C9 DB 60 0A
 BF B6 96 E1 26 D1 A8 F3 61 35 AE 24 97 E9 95 52
 E8 3E F7 42 6B 42 66 38 2A 3F 64 1B 08 BF 2D 8F
 4B 25 F8 A0 C9 3A 19 DB E7 03 8B A7 63 32 B8 52
 70 91 07 82 C6 91 4A A0 55 6F 21 DE F5 51 C7 28
 F6 96 D3 29 98 5D A1 73 79 20 B3 37 28 4B AB BF
 A0 8E 20 23 9F 6D B4 7E 1D 16 DD 23 62 6D A5 E4
 5C DD CB 7A 4F C6 9F B9 10 67 C7 30 36 45 D5 55
 11 CF C5 45 B2 05 CF 3C E5 18 F6 04 19 3A 63 2D
 D1 D1 9B 64 F8 B7 2B 90 F7 21 C4 68 28 67 1A 06
 5E 78 A2 07 57 68 86 33 49 90 94 A2 78 0C 7F 17
 35 7E 96 4A F1 69 DA 76 D0 A5 3F 8E EA B8 76 D8
 55 75 0B 5B E5 CB 02 94 C3 A6 FC 61 14 2B D2 FA
 9E 8E 09 3A 46 61 7E 07 8C E2 F3 50 59 6F B3 61
 3D B2 DB 46 0C 36 D5 5D 39 58 0A 4C 88 44 A6 04
 40 09 95 D9 DF 8B 54 FA 61 F1 E4 9A 38 3C 06 9D
 4B F5 E8 82 73 46 B1 45 31 C6 90 17 4F 00 11 0D
 67 93 BF 53 B0 B6 43 98 E2 70 DF E1 BC 97 D7 D6
 11 19 16 21 F5 14 A1 77 37 C7 8E F2 E2 CC 56 C6
 1A 5C F6 3F C5 18 D4 10 E1 88 FD 7E EE DD EE 42
 8F 5D 81 FF FB 03 9C 33 28 7D 4C D4 83 E3 8D F7
 B3 1E B5 E8 2B A3 CC 9C 9E F0 C8 72 B4 24 A4 48
 7A CD F9 15 96 36 25 77 B8 CF E0 EF 47 D5 99 60
 B2 47 91 8D 72 85 C7 16 4E 97 6D 22 6B 35 66 29
 26 40 18 01 DA AC F0 8E 83 C0 D4 85 52 1D 46 31
 4C 52 6D F1 94 F2 C4 74 53 BC 7D 84 62 5E FB 02
 FB 56 A9 24 86 2C 12 0D 6E B8 1B 74 20 BC 9D 1D
 1B 59 29 C4 16 93 6C B0 ED 6B D5 FC 21 4B 36 9A
 48 75 52 D3 81 7F 5B 76 B0 C8 9B F1 99 A2 39 E1
 3C B1 71 CE AE 23 A4 12 7F 35 AE 5F CB 00 4A 3A
 70 18 ED D7 04 AD AF B4 37 64 E8 6B 65 EB 7B DB
 A4 B1 04 EA 54 95 F6 A3 E3 B9 61 0A 97 5A 49 51
 F0 F2 6A 8B E4 B7 24 8E
* End 1624451518 4006528907