* LTspice Encrypted File
* 
* This encrypted file has been supplied by a 3rd
* party vendor that does not wish to publicize
* the technology used to implement this library.
* 
* Permission is granted to use this file for
* simulations but not to reverse engineer its
* contents.
* 
* Begin:
 B5 40 0E 68 1A 94 8C 30 17 B9 00 FB 2A FB 1C ED
 32 59 75 3B 34 BF B8 2D 19 13 9C 4D DB 50 6D BF
 42 C5 3E E2 73 F0 E0 65 CA 0F 45 4C 8A 39 6C E8
 40 B6 77 44 28 5A 57 6C EB 71 CD 48 CE 5B E4 13
 AB 4B 6D 91 6B C0 53 92 92 E1 92 F1 6B 53 C5 66
 0C 20 2F EB 79 0B 34 B7 44 83 CD E6 78 A0 42 CA
 01 77 D2 7F 34 40 68 51 31 33 39 BD 54 68 C5 70
 3E 62 3B D7 37 64 BF FB 2E 6B 59 51 DF 96 D9 A4
 62 3E BF 2E 56 21 3E 73 F1 6D CA 4C E6 2A 10 5D
 DF A8 D2 96 00 E0 59 24 66 A5 39 DC E8 8C 17 16
 F9 C9 77 1D E1 C6 62 C3 8F EC 63 6F 17 FE A7 3E
 3C 7A 9D 5C 1D 5B EE D3 C1 90 01 C7 0E 17 45 FE
 4A AD 48 6F DD D5 12 BC 28 B7 A5 8B 01 70 CD A4
 E4 76 AB 3A 99 CA 0D 48 A1 3E 01 4C 0B 13 4D DF
 96 08 51 57 8B 55 4B E5 48 85 2B D7 5C BF 20 7E
 B9 F0 3F A5 0F 7F 6A 77 13 46 E2 03 65 E5 39 B5
 34 14 4E 21 B5 54 94 CF 7A 5E C5 12 C1 CF 4C 65
 26 6C 5A 9A C6 2B 47 34 6F 06 B7 B8 D0 99 07 5E
 FD 71 F2 A2 31 72 CA B6 9F AF C3 49 A1 31 D4 6A
 C6 48 5B BD 5A FE 34 21 1D AC 4F CF 46 76 0C 9F
 93 8A 6F 9A 9D 1F DB 15 2E 48 A7 8B B1 02 4D 07
 20 57 6D 3D 34 EF 13 CB C6 E1 AF 58 EA 1B 38 E0
 F5 0C 68 B1 7C 2C EF C7 89 62 CC C1 6A 3C 20 88
 B8 DA 5A F8 B7 C5 5A 6A D7 D6 89 A1 C7 AF 97 81
 1B 1E BF EE EA AF 4B 01 22 13 38 40 8C 47 08 05
 7F 0A FA 7B 31 D9 C9 84 81 9F 79 A6 62 01 EC D0
 E0 7E AB AE 9A 21 F5 BD F5 B5 78 5D 20 BF D7 6F
 9F F8 50 55 7E E2 1F A5 66 48 D7 DD F0 43 D2 66
 62 5B 2A DE FC 34 11 4B EA C2 C5 AD 9D 09 70 71
 10 72 70 80 92 9B 66 87 38 AB 2D 18 90 5F 6F B8
 A3 8A 82 2B 93 EE E2 2C 05 B4 F4 A1 62 E2 B9 EC
 F1 36 4F E2 C2 19 50 0A E8 2C 94 D7 67 06 AA A6
 0B 01 60 99 07 38 4B C4 A2 D8 10 65 C3 FB 72 F6
 2E 93 EE 2C 28 C1 FA A2 50 3D 83 33 DB 9B 04 31
 13 8F B7 2A 23 8D 06 10 3C E7 93 BB A1 5B A0 5D
 18 E7 E5 C0 24 08 82 31 B7 05 11 67 9B BF 57 9B
 80 2D 1F 32 ED A0 74 C2 D7 75 FE 86 79 FF 43 DC
 C7 83 B7 33 B8 EE 1B 0D A2 DD 66 E6 A5 D9 1F CE
 3F 87 22 AB 7A E4 5E 88 32 47 EC 90 93 EC 43 E4
 D6 DF D4 83 51 D2 35 F8 13 9C 22 EF 9E A8 27 75
 87 0D E9 2F 1C D2 E6 D4 D7 5F 04 5B 2E 32 25 AB
 FA F9 39 56 C3 5A 04 E8 AC E1 5F B2 F6 CF ED 34
 B9 37 D0 AF E0 41 CF 5D 2C F3 E1 6C 9C 41 95 77
 F7 B3 C2 68 B4 2C 87 1B 57 E6 B1 F6 BC 20 3F 67
 1C FD 6F D0 3B 5A 68 BD 52 EE 29 BD 58 90 DA 81
 31 98 CC 37 49 8F B8 C2 9C 5A C1 41 02 F5 04 07
 9F 96 4F 92 D3 D0 DD 31 A9 F1 3D D1 01 0F AB 1C
 38 13 3B 53 A7 B9 FA 6D C9 C6 9A E8 08 84 0E E8
 2B E3 0B E5 78 12 9B 7B 9D 4D 78 88 DB 66 C8 31
 DA 64 74 59 08 A4 C0 A5 68 51 03 37 53 E9 C9 3E
 2D AA A0 94 7E 65 BF 45 BF CE FF 37 D6 75 08 CA
 D0 BC 20 A4 D6 4F FD 56 24 23 9E A8 15 89 81 33
 A1 CD C9 16 48 F6 D8 09 A5 FE 3E B7 84 83 F1 00
 0D 20 24 30 10 D1 FD 1C 7B 2C E3 A1 BC 8A 47 B2
 0B 74 1A 87 0B 53 93 50 41 AC 14 8D D1 E7 A3 59
 84 72 EA A1 EC 78 2E BC 7B 22 95 7F A0 06 11 9E
 DC 64 2A E2 E5 43 60 08 CF 74 5E 19 C6 4E 4E A8
 6E CE F0 70 BE 13 7B 73 66 F7 F0 17 90 69 50 58
 E0 A3 2E 2B D7 21 D7 50 B7 C9 B4 79 B1 5D C9 40
 38 E0 9C BA 25 36 7E 33 CC 34 2C 5A E5 A9 CF AA
 65 E9 F0 A1 BA 17 E7 98 C6 25 46 22 F5 73 3D DA
 C4 F1 C7 F2 5D 2F 80 EE D1 86 8C 2F A0 85 D2 26
 FF FC 8B 2C A5 CA FE 5A 7F 23 D7 A1 BD 0E 3A 4B
 81 AE 5E D8 C0 50 D4 88 88 3D 16 77 B2 52 D6 BB
 3E 05 78 9A CD 05 39 9F C6 D3 2C 02 6F DB EB A4
 91 32 3C 2B 8B EC 4F 43 74 EE 1B AC 6B A2 1A 08
 FD 83 D0 5A 44 C5 C7 B4 5C 86 85 A3 6A 9F CB 12
 1D F4 EF DA 43 DE 79 D4 52 25 F1 0B 71 D1 B8 88
 EF 6F 48 F5 89 AE E9 16 4C 92 E5 E1 34 96 34 7A
 50 19 3A 82 0A 9E 34 57 81 3E F2 9A 36 03 6A C0
 9F D9 A7 23 D6 09 B2 17 71 66 2A F5 9E 4A 82 43
 8D A1 55 8F 3E 41 0C 85 1D E0 B3 E0 BB 62 2F 62
 6E 6D A1 7A FE 68 7B DF 8A E4 1F 76 1F CE 4F 6F
 62 BF BE CE 6D D6 C5 55 7A 3A BF AB 4D 76 6D 53
 6B A5 E4 50 BE 65 D4 63 40 88 16 9E DD C5 55 1D
 75 E9 16 EB 8A 6E A2 95 B6 04 59 A8 04 57 B2 68
 90 A9 FE 69 C7 3C A6 00 3B B2 BA 27 DB 81 91 09
 76 18 06 B3 92 BD 03 DC D6 BA EE C6 62 92 F7 9F
 88 39 B9 95 54 A7 86 D5 64 DB D5 D6 94 3B 81 19
 E1 EF 8A 7A 5C F5 42 A5 EA 7B 77 C2 A8 ED FC A5
 A8 39 E3 1C 71 8A 84 43 D4 6F 59 32 83 DD 13 66
 A4 0A 3F 25 D7 28 71 AE 42 6B D9 DD 32 11 97 A8
 80 80 81 2C DF 9D 67 FB 76 C4 70 BE F4 32 50 F0
 33 C2 3E 6B A0 87 57 87 1E 52 CB 94 B8 05 91 14
 41 8A 87 13 1B 16 7A 14 5A A9 D0 A6 1F 18 74 FA
 EF E3 F7 BD E2 53 70 AC 19 1A 1D 19 28 61 8A 5C
 E9 0F CB 46 8B E6 39 22 28 02 98 67 41 9B EB 56
 FD 50 E7 D7 1A D0 2C 5B B9 4B 69 CE 0E 35 81 C2
 C6 73 E2 1C 1F C3 19 A9 DD 06 AB B6 B8 56 5A 05
 13 8A 78 B5 69 48 E5 B3 66 DC 95 A4 F2 D9 B6 99
 55 81 B7 7D 4D 65 D9 E7 DD 6E 8D C2 F4 53 0E 9B
 C9 41 24 E0 4F B9 B7 92 FA 15 9B D1 7F 19 F9 26
 DF 16 24 92 7F 09 75 DE B1 52 DB E7 BF DD 4A A4
 19 69 60 B6 9F DC D8 FF 52 70 DE B6 BD 9A 0A 78
 93 04 7D 26 B3 07 53 EB E2 88 FB 49 D6 E7 63 7E
 E1 25 80 60 84 CC 05 A2 05 57 9C 6F 91 E1 A1 BB
 50 C0 42 4C 2D 94 4B BE 31 55 46 FE 6C A8 E1 E6
 9C DE D3 5F BD 8F 12 7B 41 E8 03 5B 67 FE 3E FF
 F3 C0 DD 4C 94 6D 3C 50 43 83 C1 14 9E 5E E9 2D
 92 8A 9F 48 96 55 E2 15 CF 7B BB CA 90 03 29 53
 62 3D 26 DC 1F 61 96 FB 4D 0F 2F 7C 7E 37 44 42
 8E ED D5 3E 35 8D 08 44 CE 0A A6 23 70 1E 05 67
 E2 90 B3 B5 40 A0 73 21 B8 53 7F 48 E8 59 0B CB
 71 CC 2C 6D 5C 23 02 F5 4A 37 C7 4F 21 E4 B2 DE
 DF C6 FE 17 EB CA A5 6D 3B 55 E6 B1 C7 63 35 41
 AC 2E DD A6 A0 B2 AA 49 22 91 D6 F1 56 37 15 AB
 1F E1 BF FB 7E 83 21 DB BE CD 78 BA 7C D3 41 AD
 62 5C 8E A5 FA 85 DD 9D A8 76 7F 89 FD 21 DA C8
 30 27 E3 CB 6B F2 79 3C 94 2D E0 DD 87 02 11 2C
 DA A5 06 5B A4 2F E0 AA 5F E9 FC 2C 4A 42 8A DA
 AE EE 61 C8 C2 70 3B B1 A9 C5 EC F2 11 BF 68 94
 C2 A4 B7 FB B9 7E A8 4A 01 27 5D 18 F9 CD 2E 70
 0E F3 2C 88 31 95 21 34 3B 1C 3A A1 4E 33 E0 A1
 AD 9A FF D7 0F C8 8A 92 CE 02 FA BC 3E 2B 08 01
 72 BF 3D E6 83 AD 74 AB 99 4F EB BA 1A FE D7 57
 DE 07 97 18 45 E1 F7 2C 97 38 90 AA 65 51 2E 43
 9E FC 66 93 B6 60 65 A1 72 60 57 D6 6C 6A 44 8C
 27 CD 02 EA 2E 65 F4 AD 1F 6C 62 15 03 82 CD 90
 E6 3C 98 E2 71 BD 39 9E 23 1A 5E 1B 52 CC 17 F6
 44 36 C1 D7 74 28 FD E3 45 D3 72 84 2C 25 FF A4
 77 90 C8 73 00 0A 17 7E 05 A9 3F B2 0E C4 52 7F
 89 7D 62 AC F8 40 FD 68 46 B0 2A 07 D4 3F E6 37
 FA D8 E2 ED BA 6A 41 31 96 B7 16 23 A0 E2 BA A6
 9E 6D 55 68 C6 BB 3A 66 82 7B 90 81 80 FF 1C 41
 E3 B0 1F E9 D7 AF 2D 38 D0 57 6E 37 8C 59 8E E7
 5C 74 F4 1F 50 95 F4 DA 93 FC A9 43 C4 E9 A6 3A
 9D 74 80 3D A2 0D DF F7 10 F3 E6 7D 2B 51 A1 A3
 85 10 8C 75 68 EF 23 15 5D 0A 6C 2C 67 A7 AD E1
 41 75 96 C4 38 44 03 1A FB F3 A5 8A 19 8F 5A 5F
 B6 46 4F CC 1F CD 50 34 97 F0 93 09 42 1A 69 58
 36 12 3E 76 94 5D 03 43 63 8A 95 42 B0 62 9A 41
 FB 25 93 20 9C 76 49 20 7F 91 BE 09 1A 4E 1D 3E
 D2 66 9C E3 91 83 90 DB BA 89 33 1E D7 97 69 46
 A0 CD 1B 80 CF AC 12 86 17 09 1B B2 B3 D8 D4 CE
 51 D9 3E C0 37 16 10 44 09 C0 F7 C4 E9 56 ED AC
 97 6B 21 B0 84 E8 31 A7 C3 DB B9 4F D1 1C 99 77
 44 70 1E 76 1A C5 62 30 67 2D 8D 13 37 A2 5B E8
 1C DD 63 6E 0E 6E C6 82 C9 C1 28 F5 6A 03 EA 2F
 B6 B2 1E B6 E9 82 2A 99 F5 E8 96 9D 08 A6 5A 10
 37 44 DC 93 25 02 6B 9E FF DF F5 74 67 59 06 C7
 D1 35 28 73 EF 01 C2 F7 61 92 BC FF 5B B0 F4 2A
 92 42 7E D0 F8 04 56 59 29 64 17 C4 35 99 60 ED
 E0 B4 B5 7B C6 73 2E FC 48 B5 61 C9 F8 7B D2 F7
 E8 06 B1 A7 08 AC 78 F0 7B EC C7 AA 4D 64 78 08
 37 77 E0 7B 6D 44 24 6E 63 A3 4C 7B E9 3A DC 49
 75 73 EF F9 06 10 44 FF A3 19 0E EA F5 0F BA 59
 3A 3A D2 FC 52 F6 B9 33 22 70 61 99 56 4F C0 A4
 8D BE F4 D3 C0 B8 18 DE 84 6B 43 E7 D6 74 DD D9
 45 57 58 59 5F 32 28 48 09 8C 4B 96 13 18 D9 19
 A3 8C 51 17 B4 78 C1 41 93 B3 42 47 98 EF C6 37
 0A 41 B2 47 9C 7F 54 A4 C4 9E 1C F6 2F E5 C0 E3
 B1 67 64 5C CA 5E FD 0F 7C 94 46 49 F5 56 71 8A
 3A FB 76 E4 A5 9E C8 30 A9 43 04 BD 72 CB 31 39
 3F A2 07 5A C6 35 3A 10 94 C2 F9 C9 4A A2 7F 0A
 3D AE 36 15 77 03 06 FA 8F 73 6C 79 CE B8 8A E6
 BD 88 4E 88 FA 85 5C 05 A6 BC 91 2D 77 62 E6 39
 54 6D 89 87 AA BF 05 86 34 9D 29 9C 92 98 52 AC
 06 BB 0C D3 24 72 6E B6 E4 1A 5E 16 07 E9 2B B2
 E5 E5 22 BF EA 17 41 8F F8 D0 0F D6 D3 C2 19 72
 44 F4 21 D3 47 F5 17 DD 6F 94 C7 16 7B F7 14 D3
 50 C1 DD F4 F2 7C 7C C7 D4 23 9F 6C 3F 52 7F 41
 6D 78 10 26 9D 5C 93 D1 16 22 0A D8 15 8F 66 33
 26 CD EE 1D 7B 93 91 CE C5 2B EA BE E3 70 C1 32
 DE 4E 32 A8 49 1D 4C 29 8B C8 7F 52 14 0E 93 91
 97 AC B3 04 E1 9B D7 7D 6C 5F 52 44 53 4E 42 9E
 96 38 05 33 B1 97 8E F9 EC 28 DC 1A D9 91 2B BA
 5B 17 27 40 DF 58 0B DD 66 B5 0D 88 83 33 C5 14
 8A C0 A9 68 6D 01 16 6C F0 6F 65 A9 65 04 3D 9F
 58 8C 9E 89 ED 58 06 C1 3A 71 1A BB D0 27 1D E7
 EC 0E A6 10 52 9B 34 EB E9 6C 85 83 9E DE 3A EE
 FF 14 BA 50 42 FB 11 87 E9 C3 39 68 1F 58 A6 99
 31 6A 0E 0A 00 11 18 61 DE 42 23 CF A0 AF 9C F7
 30 D5 87 3A 92 94 19 15 E2 59 9F E7 B8 14 06 F5
 C7 47 BD 8B 36 11 66 05 D9 01 79 4A 76 0D 1F 4E
 AB 95 4D 31 C6 A7 F5 FF 30 F7 F6 E2 86 28 F9 67
 C5 34 02 C6 A0 CC 1D 7C 25 7F 07 95 9A 52 14 9A
 F7 95 06 0E 70 F6 F8 2F 9B C9 8E 54 5B CC 8C 0C
 4A 7A 4B 6B A4 5A 99 20 4F 66 27 83 F9 B6 57 6E
 A2 85 0B 3D D0 FE 36 E4 25 C5 76 8A 20 BE FC 6F
 51 D2 7B 78 C1 7B 53 8E D5 3F 15 CB 2D 6A F6 1D
 90 06 51 88 E5 A7 39 2E AD 40 6C 3A 52 9E CF E9
 D0 A9 60 0A FF EB A4 1C 2A A0 73 D0 4C 4B 09 D8
 5D B1 BF 26 1E 39 86 D3 D4 CF B5 8D A8 FE AD F8
 DD 55 33 A9 2F F3 44 29 2E D4 13 88 D6 42 CF E8
 AE 8C 3E 6C 32 70 11 AB 6A 4A 62 B1 C6 FF 5F C8
 E4 AD 2B 9F 5D 48 41 6B 3B D6 83 DA C3 C2 DD 83
 97 DC 16 F7 3E B8 B7 59 E9 74 62 84 24 79 EA 36
 49 C7 CC FD 8B D6 DD 35 62 0D 53 B6 AE 72 0C CE
 12 D5 E9 39 FA 73 89 8D 96 42 E1 79 A5 DE EE 39
 0C E8 5C 98 B3 4B 70 A7 3E 96 21 C8 D5 F2 78 69
 27 FF A3 11 60 34 8C 44 CA B9 30 38 28 97 F7 58
 5E CE 75 9F F6 B4 48 3E 58 CD FC 33 38 1E 13 26
 75 E8 E5 25 A2 F8 54 6F 9B 0A 18 2A 2D 6D 62 07
 D5 77 82 65 5D 8E 4F 8A 1A C2 F4 3E A7 DF AC 7B
 DA 0A 4C 5F 0B 2E CF 57 86 3D 7A C0 FD CD CC 58
 8E EF 6E 8E C1 25 AD 9C DE DD FF 03 E9 5A AE 9A
 1C 75 74 D4 CA 78 D1 AE 1B DD 42 28 3B AF 09 85
 49 3E C9 30 D6 4D D9 E9 B8 3D 4E F4 52 3E FD 1A
 2A D6 B7 3D 85 19 0E F9 FA 20 06 E0 89 E5 1D AE
 C4 0E 59 33 50 6C E9 59 A5 F8 87 44 7D C1 1E D1
 68 A4 7D 26 65 83 AA 6C FF BB B1 DC 60 01 CA B7
 3D E2 2D 59 8F 30 59 C3 99 49 2A CC 9D A3 CE B8
 0D 04 DE 03 80 D9 85 62 0E BD 9B 7C 93 B6 69 44
 A3 A6 9D 22 93 25 B7 AA 92 5D BB C2 46 B2 3A F1
 EE 64 FE 38 8F 76 0C 92 64 63 1E E6 14 10 E3 D4
 AF BB F8 6A D3 95 CC EC 40 0E 98 32 D0 BE BE 99
 8D 6A D8 E5 E8 7E 3B 71 E6 14 00 29 96 01 9D 27
 46 91 4E 2B 14 9B A0 BB 4E F9 1D 79 C6 E6 9C AA
 49 69 C9 D7 F3 9F F0 03 7A D8 74 2E EF 47 77 D9
 3E 97 75 5B 3C 1E B7 11 69 04 64 BD 80 32 40 6F
 65 DC CA C1 ED 2C 68 65 4F E8 03 E9 5A AD B8 DB
 BA 93 0C CF B4 33 25 DF 75 F3 B9 A4 FD 51 AE F6
 45 91 B9 7C D2 D6 60 A1 19 14 6A F5 2E A5 D9 F3
 72 7F B6 82 A7 6B 37 5B 25 A4 86 68 CC D5 DB 8C
 78 00 89 CF B7 C4 D3 27 22 F9 72 49 BA 1B E0 9B
 E7 52 41 12 87 05 23 63 91 A2 A8 95 B8 00 98 4B
 60 0F 11 CF 90 5A 44 AE 3A 87 8F C8 B6 3A B3 7F
 F6 9E F5 9A 6A 8D 2C A4 8B 16 6C E8 9E 2F E4 17
 FD 1E 2F 14 87 9D B1 4C 7B 92 CF 2E 9F 81 F2 B4
 79 CB 37 C9 38 28 C3 81 FB C3 36 17 9B 75 04 C9
 84 C1 FE 2B B9 BA C3 61 3E 57 B6 0E FC CB CD 6D
 FA BD 35 EF D7 30 20 77 06 6E 6E FE D6 E8 A6 DF
 DC 52 81 2F 3F BF 3A 5D 3B DC A2 15 13 48 FE 51
 56 B5 46 94 5D 28 49 89 CE 0B 8E 03 43 E7 63 6E
 93 89 68 C2 25 50 30 B1 6A DE 24 C0 BE E7 6A 00
 5C B9 69 FC 3D CB 9D 18 3F 49 55 55 C8 4B 24 B6
 23 C5 17 9C D5 A4 01 4B 8E 5F 82 5E 4D 3B 6D FC
 38 45 98 C6 7E 7B 43 CA D9 53 F1 3A B1 76 F8 21
 3C 10 36 AB 45 11 37 9C CD 45 0E 8F 1E 93 7C 26
 36 60 BA C6 3B 32 F8 EB E1 73 62 F9 9A 01 FE FB
 76 CF BE 58 6F CB E5 16 6D 02 4E 0D 3F 14 A2 04
 D2 A5 28 C0 D7 4D 40 6A EC 71 87 BB 78 18 28 50
 4D 62 64 37 F0 50 01 0B D7 81 3A 4D B6 B7 39 DA
 A8 E5 ED D6 2D BE 78 5C F5 49 12 87 CA 66 6D F9
 5C 5D 40 86 BD 32 93 68 B6 3E 3A E0 DB 1D 30 3D
 E1 7F 54 BB DB C6 F0 68 AA 9E 5B 6A C7 D4 79 31
 FC 7C F7 7B 03 83 5D CA 9F E5 F5 6E 67 B4 F4 55
 36 FB E6 09 6A 0B 86 94 C0 BF 84 51 8B E2 96 00
 25 4A A2 86 FF 23 6D 5C F2 42 A0 32 30 04 63 64
 C7 D0 CD 3F 5D EA 33 DC 9A 02 E8 04 FA 83 0E 4A
 09 90 BD 09 10 81 73 04 52 AF B3 0A AA CE C8 98
 DA 37 76 1C A6 61 6F 00 E4 BB FA 0F 8C 49 0B 83
 4D F4 2E 85 CD 47 C1 B5 A7 89 EA 5C A7 69 40 3B
 4D 66 F3 D2 9B C2 86 90 35 44 13 48 70 FB C0 51
 34 AC 8F E2 99 CA 3D D9 85 7B 79 6C 07 9C 70 67
 64 06 19 AD 3A DB 8F 68 FB 2C F6 71 E4 42 7E CF
 CC 0B 11 AF 8B 36 11 FE 48 7F 44 07 97 B8 85 A6
 29 64 BC 61 5F 53 4B 8A FD CF AB 5B C7 8A CE 98
 61 E8 5D D3 28 D6 5A CA C0 94 8D 09 68 B2 4E 97
 2B 3E A0 18 74 88 7F DE 0C EA EB 88 FC 4C F2 8D
 F4 FC 9E F1 5D 9B E8 A5 1B 90 BA F0 95 68 53 EC
 82 15 79 64 B0 0D 2F AB 31 F4 BD 6F 74 62 2D 87
 8C 51 78 AB FF AA E3 49 62 B5 DF 07 05 68 75 A6
 9E 6A 94 21 6F 0F 57 68 83 9D 2F 60 67 5F C3 4A
 85 AF 4B 7A 90 18 65 E2 FC D7 C1 D2 38 34 7E 65
 17 43 29 88 F0 9B FB 0B 36 89 D3 03 0D 08 13 CA
 53 78 84 AE 82 A1 BE 51 17 D5 69 D7 B2 1E 0A 1C
 38 30 8D 28 63 6E AC A9 4F 21 3D 9B 29 44 EA E9
 E9 46 63 BE 48 55 04 A3 E7 BD C9 77 D7 E4 B1 AF
 54 07 4B 08 65 EA DA 4A 3D 24 0A C6 10 78 98 C5
 11 FE 73 51 6A 60 66 1D 56 BE 8F CF A5 C3 89 18
 9F 51 E7 85 2D 47 15 CA 61 34 58 FC FD 61 03 1A
 85 1E 54 96 ED 49 B3 B7 AB C6 80 A8 C0 6B CB F8
 D2 A4 30 07 40 FB 5D CB D8 50 F0 39 B1 A8 C3 D8
 CD AB AD 6B E8 69 A0 D6 FC 74 D2 22 B0 BE 00 FE
 C2 4C 69 E9 4B 87 E5 11 06 A2 68 23 3A 09 0E C4
 2A 2F 3E E4 37 7E BB BD 2D F5 A9 BA 63 5B E0 5B
 95 35 8F 81 7B 0A 96 52 24 3B 49 2E 4A 06 53 FC
 62 A2 A5 F4 65 A7 4F 79 16 AC 99 7B 15 4B 50 D6
 14 FC F4 35 E0 9E 94 1E 61 A5 09 C5 7A 5F 5F D6
 F9 DF 68 53 F3 CE A7 06 E8 37 8F 0D 4A 25 E8 72
 2A 2A 33 49 9E 9E DF BB B9 8E 8E 2E 5D 7D 10 55
 A2 FC F2 B5 C3 83 97 45 41 3A F3 7E 0F 73 7A 08
 06 A4 15 F9 2C 9E F8 A2 2D 0C C3 B5 9B 75 9E 4D
 69 EB EB 4A 33 B4 D1 55 A1 E4 6F 05 1E 68 B5 15
 DE C6 4C C1 A5 F3 DB BC EB FA D0 75 2F F7 59 2D
 BE 08 15 B1 7C 32 EB E3 1F 46 59 BD F8 F6 D1 89
 ED 82 1E 95 B0 9C 1D C0 DF 1E 1D B7 98 95 D9 38
 DC 2B 15 81 20 91 08 A9 F7 A6 26 D7 06 34 7F 86
 48 8F F2 08 6B 73 96 91 5E DA C9 33 69 40 D4 D9
 92 BE 28 6B 7C 31 96 1B 70 73 D0 1D 44 1F BA B8
 35 73 CF 92 23 2E 13 06 3B 88 0E E8 7E 1B E8 C5
 D8 96 99 72 0E A2 56 1C 10 09 99 51 82 87 C9 EE
 8B 85 EC 0F D3 DC 53 6C 08 5C 96 63 5C 43 76 17
 7F 4E D4 40 F8 A8 49 46 5B 10 D8 9C 2E 38 D3 81
 6E 4A 3F AC 4D 23 63 DB 65 23 33 3E E8 79 A8 20
 E3 06 57 E9 3A 58 1B 90 A8 B1 36 80 78 E5 18 27
 90 71 CB 11 24 09 78 16 20 DD 7E A7 1C 6D 6E E8
 F1 17 F0 B1 5C D4 4A 01 2C ED ED 05 CF F3 9A FA
 DB DB 1F E1 0F FD B1 EB 3F 2D C7 48 F8 A9 43 E5
 3D 70 7B 06 56 9F F4 8C 9A F4 CA 24 17 D2 28 36
 30 E0 B9 AF 4A 88 DD 42 20 4B 3B 13 77 E8 B9 F2
 3D 73 3A F9 08 F4 6A 73 96 1E 8E E0 05 11 FE 9F
 F9 6F 8E BD 51 24 CA 30 E8 B6 A3 E0 22 3D 87 82
 8C 57 79 07 A5 74 E8 C2 FF 88 36 0A 55 D6 51 84
 8C 59 F2 6D 9C 0D 85 E1 6F A8 A0 08 DE 3C 7C D7
 0E FE 62 AD 66 C6 DC 05 F3 FE 4C 50 2B 1F A8 EF
 E4 AF DF E3 F3 A3 C8 65 AA 35 BF 26 34 CE 54 C8
 B2 A2 63 57 A4 B6 1E 85 7D C7 85 F3 A0 6A C7 A9
 29 CB 65 C8 C1 67 F0 A9 7C 4C D0 04 3F 12 27 D7
 46 8F 4A B7 28 19 FE BC 17 EB 19 B0 EC 2C C0 C0
 DC 21 72 09 FA D5 D1 55 68 82 86 94 79 BC 01 E3
 3F 16 3E C3 5F 94 71 B4 B3 C2 E6 CD 99 23 57 A2
 F1 1B 57 76 C9 8E F3 F1 26 8B 5D 12 1F 2F 13 FF
 0D 84 E0 1A 84 AC FB 32 F6 A2 82 CE 02 F8 53 7D
 95 5D 31 7C 39 64 A4 89 00 BD 46 D7 D3 70 50 86
 6A A4 6E 25 FC BA 7B B2 B5 FE 24 8F EE B6 EC 9E
 DC EA F8 F7 47 EA 3D D7 05 95 93 04 94 C6 96 43
 0E A8 7E 76 B4 21 D8 DE D1 3A 2F 13 65 1B 69 57
 97 84 32 D2 83 E0 92 98 73 12 94 4A 73 F4 BB A9
 CD 39 7F 3B 46 C2 D5 84 C3 45 FA 5E F5 C0 4A 0D
 BA 65 E3 FB 5D C3 6E 83 F3 39 3C 4A 74 2A D2 86
 03 BD BC 2A F9 91 DF E2 E6 B0 28 63 79 20 7D 3D
 37 37 16 BA 27 89 9F 41 C2 53 E8 81 3F 3A BD 91
 AD 86 14 2A B6 6A 4F 6A 6D 00 C5 1F C5 9E 86 AF
 F6 CA 97 69 3C 48 4A 60 01 55 B4 FE 00 72 49 E8
 A5 D7 F6 FA 57 B4 2C 9E 26 4E 8C BA 6B D8 16 C0
 67 F2 F4 F5 A9 D7 E9 CE F2 5D 2C 20 FF C0 1F A2
 94 C2 64 76 06 6F 73 9E 5A AE 51 BD 23 6E 8A 3F
 29 98 89 F2 22 7C 07 0C AF 3D DF 52 35 70 D0 A3
 4C F5 66 E1 A6 BF 58 D3 9C D6 51 AE 56 14 1A F6
 41 3A E9 08 8A 34 03 E4 78 F2 F1 1F 23 12 A6 DC
 DA EF 71 42 7B B4 20 BE F1 54 C7 70 BC CE FD BF
 2C 63 6B 85 70 93 56 B7 92 97 00 0E 68 BF E7 FB
 06 5F B9 C3 52 7E 6E 32 51 2E 3E 8E 33 FD 6F 63
 A4 0C 50 A3 B8 0B FF F3 07 8F F1 C2 85 5A 65 36
 2C 92 0A 2D EE DD 3A 20 3E DC 0E AD 5C B6 7A A5
 6E B0 EC B0 FB 42 65 56 5B F7 51 82 8F 1C AA 83
 CA 00 24 EC D3 3A 0A BB FD 88 05 12 3A E1 29 79
 93 3D E1 E5 05 97 3D 12 14 2D 10 04 13 C1 75 F7
 0C 6C 21 7D E2 32 ED 4C FB 59 4B 3F 29 E0 8F 41
 A6 78 7E DE 0B EB B4 B4 D0 00 46 CA DC A6 4E 18
 C9 A3 EF 6A 4C A9 C6 84 EB D6 25 23 DD EF 18 14
 EA CD FD 5A 35 73 4C 75 35 A3 F8 4B F9 4C 08 D9
 96 1A 62 92 76 95 E6 62 47 97 EB 30 6F 92 E0 59
 A2 87 9D A1 FC 6E F0 A4 BA CD 69 B6 E3 14 99 C2
 0D A2 03 DB 92 CB 89 16 61 56 FE 6B AF 96 E6 BB
 1B 72 71 42 12 63 04 AE C3 85 CF 30 09 B9 81 49
 17 C7 EE 21 DE E1 FE EF 9A 76 74 50 F8 7B 64 3A
 DD 1F 24 5F E9 1C 41 48 52 8C C0 16 91 5D CB 51
 30 F6 D4 D8 16 3D 41 B1 DF 79 E7 8A 52 91 75 F2
 5D 72 07 F6 25 23 FC AF 3D 89 96 4E 95 4D 0A 45
 F2 B1 6F 97 A2 F9 D4 07 53 C3 67 30 B1 E2 C4 85
 34 38 27 7C 68 1C 20 93 66 38 E8 A3 8E DA CC 3B
 5C D5 20 40 80 3F CF 05 31 CD DF DD 11 F0 5B 5E
 45 E8 65 3B C4 C7 EB E6 E1 F1 0C B0 5D 38 B7 47
 8A E3 94 23 B5 7A 64 7E 11 11 1B 3C B6 C2 82 31
 FE 4E D4 93 3F 40 BA 8A A4 30 47 C2 7C 65 2A BD
 70 BA 7C 38 C5 76 F3 AB D6 2E 45 7A 75 C3 3C B8
 93 09 46 2B 03 1D 0F 9D C8 B7 AC 2D C3 75 36 F3
 A0 F8 E6 04 E9 E4 FA 24 C9 5C 90 C9 79 1B 7F FB
 6D 3E 7A 1F AF A5 FF 4B C4 E0 17 D0 1C 50 A9 BF
 3A 94 0E 56 C6 4D EC 66 07 6D 13 2D 3C 3B 45 37
 2D 3C EC 26 3E 25 28 B2 DD 47 4A 68 FE D6 37 25
 00 72 C7 79 9F 69 1E 57 EF 86 CF 0E 8D F8 5B 89
 F7 D7 5C C3 28 AD 85 55 2C 45 7D 65 06 DE 86 85
 ED A9 FC 50 6C 00 25 A3 1F E1 35 45 0C EC F9 EB
 33 06 AB E2 1A CB BB 2D 81 6E AF EF 9D C9 D8 5F
 46 B2 24 17 41 51 07 C5 46 ED 92 AA 0F 4D 16 CD
 50 2D 2B 35 53 F0 07 45 7D CB 94 04 E6 72 6B 64
 82 73 49 6F 5E FC E3 F4 AD FC 8C D3 DD 7B A4 ED
 DF 9F 8A 06 73 A2 3C 84 BB 9A BF 65 77 3B AB 12
 74 69 A6 FE F5 A2 B5 B4 32 91 9B 03 BB 4D 27 C8
 46 16 BE 0E 55 D0 94 0A 35 A7 BD 7E FB E6 17 32
 EB 46 5B 57 0F EB 2D 2E 23 47 81 3E D6 26 B0 EB
 0A 0B 4F 82 FC C8 6C D0 54 66 FD 21 8A A8 B1 A3
 A7 0F 50 0B AB ED 69 27 13 64 E6 76 6A 20 AC E5
 D2 7A A9 B1 96 DA E5 14 C9 D8 43 42 DB D3 A3 B0
 DF F6 2D 6A 15 64 00 D6 AA 87 AF E2 C8 84 C7 83
 F3 63 16 C4 01 E7 F1 01 E2 0D 8E 1D 42 EB 90 E2
 FB E4 4B 47 F2 CE C0 03 69 FE EE 1B 4B D1 8D 8A
 3A 09 A0 54 5B 03 15 8A 6E EA 1B AD 6A 86 AC 27
 51 4A 1B 10 6B 5B 33 AB 0A 61 2D 31 31 D8 6B 59
 86 7B 45 08 86 FF AA 93 4A 7B 49 62 16 6F 16 85
 A0 19 C8 F7 84 08 4B 7F 3A 1F FE 1B 19 DA EB 15
 81 19 5A E5 93 20 35 9B E1 F0 BC FD 41 2C 11 64
 F0 31 DF A7 40 3F 64 E1 D8 5A 25 89 C1 16 A4 2B
 67 95 DE B4 BA 4D E9 08 A2 CE 94 DD 08 14 73 EA
 32 CF 0E A8 4E EF D1 42 E2 77 B5 CD EE 32 13 FD
 B9 D9 89 29 FD C8 CC 97 C7 D6 45 A5 AB 39 7E 9C
 96 72 06 F8 D5 EE 10 56 65 72 B6 63 CF 26 C2 02
 7F E3 22 86 13 96 50 06 F1 56 AE E5 FF 39 92 08
 5D 58 E0 F7 16 09 96 AD 8D C8 32 6C DF 01 DF 15
 66 91 1C 47 D5 0C A0 C9 9F 03 87 66 0A 29 2B 11
 A4 2F 24 36 FE DA BA 79 EF 47 E1 1B 55 CA 26 F6
 F4 98 88 03 C6 B7 8C A7 90 01 7F 53 D6 93 A1 93
 B5 78 46 32 94 2E 19 A1 37 23 A0 3F 44 D4 3D 08
 A0 E5 C2 58 A2 B3 40 A5 7D D2 CC 0C 69 A0 06 BD
 75 0C 3D 67 73 C2 D9 E1 E8 94 7D B5 7C 68 04 55
 34 85 C9 8C 86 68 D7 3B CB F0 2D FF 3F E5 75 5E
 CC 2D 8B 6D 1E 2B 6C 95 95 F4 96 C6 5B E4 95 4A
 74 55 87 FF 8E 0C 96 63 56 A0 14 A8 FA 10 16 96
 92 BC B2 0E 3C D5 76 61
* End 2025015998 7863213