* LTspice Encrypted File
* 
* This encrypted file has been supplied by a 3rd
* party vendor that does not wish to publicize
* the technology used to implement this library.
* 
* Permission is granted to use this file for
* simulations but not to reverse engineer its
* contents.
* 
* Begin:
 7E A8 01 AD D6 36 6E E1 3E DA 52 5E EC D8 43 8A
 F3 F4 97 E1 6E 79 D3 87 7B 32 8F 0B 61 72 2F 0D
 EC E9 E1 DF 32 18 0A 36 70 60 2F AF 3B 1A 9D AC
 93 F8 71 9B FB 12 F4 83 DB 3A E5 99 8E F7 BF EB
 48 E3 8A 77 11 0D E8 36 99 67 4A 1C B8 F8 C9 C6
 4C FE 93 55 24 A6 1E B6 A8 4F BC E5 07 02 D8 1E
 C7 E4 DD 18 29 4A FE 20 08 DE CD 10 BC 93 4C 12
 6E 12 06 97 A5 F7 23 1F C5 94 66 E6 1E 44 CF 8E
 1C 05 19 AE 70 E5 9F F0 37 4E 59 59 90 A9 51 EF
 42 03 FC D8 81 D9 3B 21 2E BB CB BB 22 FB 40 F4
 BC E9 3E 42 1E 52 9C 41 67 5E 65 5E E6 CE 18 BB
 F2 95 6B 19 42 B5 81 23 33 2F 9F EF 97 F4 A1 C9
 19 4B 7B D8 A7 C9 1B 78 EC E8 88 F0 5C AD F8 86
 9B A5 E1 7A 58 CF 87 5A AD 11 D4 46 37 56 4C C4
 3A 37 CF 80 0E 2A 3B 58 FF 05 68 FB 8C A2 A2 C8
 8A 80 4E C0 E0 BC B4 B3 5E 57 13 C8 30 FE A3 F7
 B3 E7 82 B1 B1 10 89 60 E8 26 15 93 51 B7 DF B5
 18 1A F2 0E A1 B7 60 6F ED A5 3A 9C F3 E6 C1 DC
 1E E7 61 07 CD 1A BE 90 AD D7 E1 2D FA 7A B4 D7
 EF 4D 3D 14 88 1D C2 44 03 11 9C 48 B4 B6 68 6A
 3C 88 AF BA 26 38 63 3A EC 5C 01 66 17 5F 9B 89
 EE 99 8E 86 E4 02 3D C7 B9 20 EA 57 0A 7A 76 67
 FF 05 4D 91 C1 41 FF E3 B3 BC F9 25 EA AB 67 CE
 99 99 4B A7 05 AE 2E CD 9C D9 41 38 0F 87 8A 28
 AA 4D E7 08 73 B7 E1 37 CB 66 AD 40 AC D9 E8 39
 64 D6 2F 9A 27 9E 3F 91 91 C7 C0 9B 9F A4 E7 23
 C4 22 F9 C0 1A B0 19 EF C7 85 87 30 8B 0F DA 97
 60 ED 08 CF 98 DA A9 DC E8 3F E4 41 D5 96 21 09
 59 AC 40 37 71 39 89 E2 14 52 D3 AB 05 F5 F8 C2
 B4 26 95 17 98 BF 1B 13 4E C3 14 25 9D 48 68 D1
 ED 9A CE BA CE 5D 21 0A EE AE 5F 12 15 DD 4C 79
 06 D1 34 0B F8 D2 B1 74 C7 4C A2 23 98 DC A0 C6
 10 BA FA 4D C2 67 7B FC 63 D7 5E FC 6C AC A6 87
 CD 9C 7D 8A 96 82 EF 23 68 A0 10 D4 A3 59 39 F6
 66 26 A3 38 FE 09 11 61 AC D7 8F 75 62 5F 5C CE
 E6 07 2B 7E F9 D7 F3 8A BC FC 20 91 D1 AC 11 EF
 6C 00 30 54 85 46 E1 E6 9E 62 C8 83 62 8A 9A 51
 1C D1 F1 8C 76 1C 8A 33 28 A1 BB FF 2B CA D1 63
 65 1F 76 DF 34 6B 8A 2D ED E0 40 2A D9 1C 4B EC
 E1 6A 78 6E 6B E3 1A F7 41 7D C7 D6 A1 F3 E9 61
 A8 DB 14 BF 4C A5 52 D1 4A BE AE 6B 7F 6C EE 9D
 76 EF EC AD 5B D9 18 26 AE 52 AC 3D C0 31 AF 46
 CF 92 51 B9 47 10 C8 F8 08 8F BA 36 FC 6A 89 10
 A1 D8 75 A7 1D F1 59 DE BC F5 28 79 F7 0A 4F 8D
 FE D1 06 F2 A6 AE D1 A9 6E D9 F0 94 CF 8A 22 59
 C5 B5 78 EB C0 A3 C9 50 AA EF 63 AB 74 97 B2 92
 D6 FB D5 F4 B8 0C 14 68 FC BE 87 0C 5A 89 C0 28
 DC 5F 57 90 1F 3A C4 56 2D 3F 23 16 9B 8B 31 BB
 E2 23 C8 34 ED 9F 40 61 A8 CC D9 82 1E DB 4B 7E
 70 4B CA 6A D2 72 B7 7A BE AE E8 0C 24 0A 9F 6B
 20 F1 21 7D 4D 93 7B 74 9C 06 26 B9 8E 02 22 F9
 C0 E3 38 96 1E 17 7A 03 A3 B4 FD 6F C7 EE D7 41
 C9 B5 34 4F F2 9F 5F 4F 59 7C 7C 03 77 1D 82 76
 27 46 21 85 0B 9A 1E AE 39 5C 6F 27 05 3F 35 BD
 58 80 17 C2 38 B6 92 74 64 7E 96 F3 21 53 18 40
 57 CC 16 66 A3 46 B8 69 16 31 E0 FB ED B0 27 8B
 67 C0 EA 96 BB FF C5 78 9D 2B 19 F9 26 B0 F1 F3
 D9 F9 E0 84 C4 AA 39 7C 5A 8A 8A 75 4E 5B A0 90
 DA 0C F9 44 A9 C4 9F D4 A3 86 D0 76 36 E5 29 68
 58 30 CC 9A 7B 03 3F 76 9D 3E 94 5F 2B 42 99 8D
 53 84 61 AD BE 3F 52 1F 5E 17 74 F8 F2 B5 9C 4C
 CB 9D 43 14 1D 7B FD B1 96 B5 2E F4 D1 BC 07 CE
 A4 09 DC 4D 64 7F F5 F4 F8 9D 3B 8E 51 35 15 0B
 57 E7 97 6F 87 76 16 C9 38 C0 31 F4 D7 8F C3 F2
 74 F8 9C 2A 69 65 C1 3D DF A4 6E CA B6 C3 B0 34
 4D 39 A9 72 DF EF 4B 58 BC 4D 3C DD 9A 8C D4 92
 DC FC 01 7E 36 19 D0 B5 DE B5 57 89 F9 68 A3 4C
 BE 2A 70 E0 12 12 4E 35 AE 3A 65 65 FF 86 0B 1E
 DE 68 1C 6F B1 D2 75 E4 3A 2D 2F F9 02 CD E3 F0
 13 8C 78 E6 07 B5 4E BB 52 77 3E 04 2C 89 5C CB
 BC C7 75 EB FE 7C 4A 99 BB 96 AE 53 61 48 39 97
 97 51 F6 B8 E4 ED 77 D5 F5 1F F7 5E F0 A9 EF CA
 99 78 35 45 B4 AF 2B D5 04 13 A0 16 C0 3C 96 40
 D0 9B 55 F9 22 DF D9 A8 A8 B5 B6 26 F0 27 A0 8D
 99 4E C3 99 3B F1 53 18 4C EC 5B 40 9A C6 76 2F
 C1 02 9B AB B9 AC 90 CA FF A7 B3 34 54 91 47 8B
 25 73 C5 B5 C7 A2 80 76 15 41 CF D1 49 3E 81 22
 BE 9E 6C D6 3A 05 9B DE C4 67 79 23 2D 8B F1 7F
 84 E3 52 DB 0B 34 8B 1B 74 BA 99 60 68 D6 DE 2F
 10 FE 10 A5 06 A2 12 1C 12 0D 97 EC 37 E6 5C D9
 B1 9C 36 58 44 94 88 50 41 29 6F 3A F6 53 36 73
 B1 DF 28 2E 84 D4 57 9C E7 5D FB 95 14 B2 12 A5
 35 E9 A2 E6 E2 01 14 00 7B 0A 1A F9 58 C7 35 42
 89 D5 B1 E5 4D 1D E6 EF CF DC E5 65 97 EB DD 4E
 9D DB 34 72 69 15 E2 AB 38 AE C5 18 3E 1C 9B 15
 DE 2F D1 30 05 62 1C 55 67 7F 71 5F 68 C9 22 F0
 94 2E 92 15 08 A8 C4 D5 2E 36 17 23 EE 48 89 9F
 E7 AB AD 96 1D 65 54 5D 36 64 FB C4 3C 95 B9 64
 C4 84 E7 19 4F FA B0 E4 F7 9E 0F 84 DD F7 CD 0F
 87 F2 5E 68 98 BC 55 77 AC E3 94 94 65 53 3B 72
 DD 09 EA F5 39 BA E4 42 24 10 39 B9 74 F7 60 37
 ED 22 9A 06 5F 88 D0 A6 64 75 9D 2F FF A7 1C AE
 3A 4C 62 F1 EE 25 A5 F5 9A 1B 5A 2D F3 C6 55 50
 8C EA 7A DC 61 80 29 50 BC CD 2C B3 75 C9 5C 72
 E3 7A 63 9F 00 F7 01 EF 47 44 C4 55 E7 BB 96 E0
 70 D8 76 8E 0B F2 CA E0 F4 B7 80 8A AA 99 2E 05
 ED AF B3 AE 6A 93 14 CA 5F 0B 27 A1 B0 57 98 F6
 30 90 00 29 86 CC 7F AB C2 72 15 5C D1 E0 29 8E
 BA 1B 3E 26 A0 57 49 54 8A F4 11 CB C6 48 23 FD
 CA 03 24 83 37 0D F9 56 6C 91 55 15 71 C6 28 70
 DF DA E9 2E B1 6A F9 4B 62 65 8E D3 0E D2 18 FB
 85 79 07 CD 91 A4 A0 28 29 82 51 18 D5 41 B6 76
 E6 FC 58 01 98 9E B3 0A 9C 8B 77 1E D9 79 A8 83
 80 1B 06 7C C1 CD 15 49 DE 34 5A 74 71 C1 9C 2A
 A0 D9 EA 7E BA 47 6C 06 65 00 FD C4 5D 2E 47 DF
 8E 49 0A B1 2E 6E 05 38 DD 76 54 D5 CB CB 16 FC
 4E 44 36 27 0C 1D 8A FE 1B AD 0F A8 86 59 49 B5
 33 03 AA 06 1D 07 8C 3A F1 94 AE CF 67 20 97 6D
 42 53 B1 3F 22 BC D6 70 32 F1 31 3F 08 83 06 B5
 DC CA E8 70 C5 6F 11 82 36 8F 3F FB AD D3 D2 1A
 37 00 25 5F 53 DE 58 91 7D B3 04 A4 7D C3 2F E5
 E6 9B 3A BC 8B A8 6C 2E 28 65 A8 16 26 AC 55 2A
 F9 ED 68 46 1E 54 03 CA 6B 2F 5E 91 32 6D DA 26
 F2 64 EF 40 A4 2F E1 B7 3F E4 13 86 FD 74 A6 BD
 43 18 B6 CE 27 D4 84 26 F5 41 83 95 3F F3 B2 7E
 DB 23 5E B1 7E 78 B8 4F 0C F6 9B FB 9E B1 C2 E9
 71 D9 91 86 AD 40 7F 65 75 3F 8E 62 8C AD 48 0F
 28 EA 32 1D 6D 5A 34 61 17 98 15 F4 A8 CD 45 F1
 60 1C CD 54 9D C7 D9 E6 2C 19 4F 77 29 20 37 83
 11 81 25 93 A5 FD 0C 55 49 A8 0B FB 7F A4 CC C0
 AD 2B 45 A2 5F BF BC 9E 16 F8 15 2A E4 D2 83 3B
 09 9A 00 87 0D 2E 81 41 BF 0B ED 43 2A 80 05 85
 EA 4F EA 91 E8 24 BE 26 5F EB BA 07 6C 4D CB 89
 5A 15 97 C1 D0 05 66 8C 2E 2C 36 C4 E7 65 F0 C1
 CF F8 30 63 52 66 8C 02 9B F8 EC A3 49 12 43 92
 06 A9 18 21 A6 3B 80 0D EA C9 35 55 2E E4 0D A7
 13 41 44 6C 7D 7F 03 04 15 EE CE 14 DE 8A AF 53
 F0 91 66 80 79 CE 93 16 70 A9 27 15 43 4D 8B BB
 1E 90 C0 52 41 4F 31 A3 6B F1 52 AB B8 E1 90 B6
 09 54 F1 01 55 CB 3E AE 78 4A 41 06 02 A3 CF 45
 89 F5 53 51 18 62 94 95 A1 3C 02 65 11 CD 38 2D
 D3 D6 30 31 91 B2 E4 63 40 C6 C4 B8 11 A7 AE C7
 40 D4 4D F7 85 25 A7 9D A1 5A DD 03 F4 59 D2 6D
 6B 18 9A FC CD A1 DD CE 71 3B 4F 9C 43 97 1E 2D
 28 3D 74 FC 88 92 F7 30 A5 05 C2 BF 69 FB 6F 3F
 25 4C AD 96 3D 4C 79 29 03 B0 8B 22 FF 65 1A E6
 3E C9 40 71 6C 42 C2 09 AC 72 51 58 8C 2F B5 72
 89 94 89 98 F3 F7 4F D7 C5 D0 22 65 3C EC CD 89
 40 93 0D 8F B9 B4 AA BD 05 40 CE 3F 0D 75 82 F6
 97 44 49 D9 99 40 FA CC 9B EC 96 21 96 14 BF 6B
 13 AD 09 01 DE 2D 06 1B 38 37 6E C1 D2 4C 39 C7
 85 F0 52 7D 93 9E 2B D6 55 F4 3A 1F C6 D8 8B 94
 68 CE 90 B8 F2 34 D5 94 C9 24 98 8C B6 EF 97 D8
 C6 FB 69 1F D5 CE 2B DE 27 36 79 C9 81 52 15 CE
 D6 54 52 0F 0E 42 2F 01 7B AD 17 29 13 3E BA 14
 66 84 64 31 B5 AD 72 C5 29 58 30 CB F3 31 61 8F
 DD 48 03 4E 00 4B 69 4A DD 60 46 1C 3C B3 79 8B
 2F 92 32 83 6D BF 56 ED FA B7 A3 2B C1 C4 6B 90
 FC 1D C6 31 2B 35 75 A8 2B 1A 4A 7D BC D5 72 A6
 97 2E 81 2D 61 A5 3E AC 6D 42 5C 47 B8 29 4F 3E
 CD 88 E3 F2 BE 4C 70 7D E0 8E 42 B0 BD F5 18 DC
 E1 AA 28 C9 E4 43 3C AF C4 35 FC 69 DC B1 17 95
 7D 65 EB C0 68 A4 6A 56 10 CF EE E7 C3 46 86 E9
 C8 DF DD A0 1C C3 28 66 E4 D5 DE 05 63 F0 99 78
 B3 81 D4 38 4C 2A 53 E9 AE 33 9F 81 66 6C 51 19
 53 4E 99 5F DD 60 6A 91 19 6F B0 36 67 37 EA 17
 94 5E 91 2D 92 67 8A 75 47 09 1B 44 0A DC 3D F4
 0D 11 23 C7 D2 89 6B 70 8B 80 3D 0D 48 A3 59 C9
 F9 10 FC 82 93 0F 98 9E 2C 5C 45 96 CA 31 43 C3
 87 92 0B C6 42 5B D1 81 A1 0F AF AE 2E C1 43 85
 86 18 C7 D8 AD 95 41 B9 20 F4 E7 D1 E9 37 A1 F2
 52 C1 C7 1D 70 9C 20 EB 16 E3 25 44 47 7E E3 65
 99 F3 7C FE F2 31 59 36 F3 AC 0A 71 5F C2 1D 2B
 FB B1 6F CB 85 2D E0 2A 53 7E 3D 81 C3 02 6D 22
 2B A9 72 DD 31 78 D7 AD 2D E9 EE A8 4C 75 B2 49
 D6 46 38 A0 B7 9C 93 D7 AB 2C 4C 08 D3 AE A4 55
 BB B3 F5 6A 8B 20 90 B5 87 9F 62 A5 E4 6C 59 ED
 B1 A7 6F 73 09 68 19 32 A3 AC E3 66 94 D6 43 51
 1D D8 10 97 BA C3 F4 FE 4F 27 7E 18 39 CC 2A 30
 01 97 CF 8E 11 69 38 B2 C0 D9 B5 52 A9 01 C3 C4
 9F 93 70 2F 1C E2 4F 48 71 F8 2B C1 77 E0 D7 30
 CA B7 56 C3 76 E2 61 1A CC 83 DF 2F 55 A3 0B B8
 9E D4 C9 AF 0C 62 50 21 42 D4 A1 33 BA D7 54 98
 5D F2 04 4C 96 E9 49 FE CB 97 1E B5 11 53 E0 FA
 67 B5 FA 91 8B 4C 2F C7 17 F9 4C BE 21 94 C5 6F
 2A 1C E2 B6 B1 02 5A 21 BC E0 FB 54 2A 70 AE 5D
 75 35 65 1F D8 EB 3E A8 10 E2 D4 26 CA 29 7C 36
 D8 BD 2F F8 A8 86 FB AF A7 5D 3F 24 72 53 DB 51
 4D 87 E5 25 69 E6 99 3E E1 E1 2E 16 F9 8B 71 77
 9A AA 3C DB 46 1A 57 B4 85 2D 1D E2 3E C8 4F C7
 29 71 AA C4 69 33 3C CB 6A 1D E5 95 DF 53 A4 2C
 C1 F8 57 E7 5A D2 91 90 33 BD 69 BD FD 8B 44 CD
 B1 14 A1 84 C9 59 60 59 4B 68 54 06 0D C5 19 05
 04 69 42 C5 32 98 B7 2C 80 BF C3 92 30 D5 57 ED
 0B F1 5C 74 FA 62 B4 D0 5F 4E 15 62 EE FC 99 47
 98 E6 86 6C BD F8 D6 11 F6 62 72 61 31 32 6E 9A
 4C 76 1D 6D 9D FD B2 8C 49 01 D8 6C D8 3D 22 23
 F3 C4 81 F8 A2 F8 46 04 A3 72 E1 69 86 C7 C7 EC
 A3 29 2D 86 D6 23 3F 1E DA 19 7B 8D BB 10 3B 50
 24 31 8F 71 D6 A8 85 D5 82 87 7E B3 29 5D 16 4D
 5F 64 81 73 E9 0E D3 ED 62 B3 72 67 39 49 E4 36
 63 F0 67 E3 EE 9E A4 25 C8 E4 44 2B 34 66 7C FD
 1D 11 36 E8 CD 21 3A 22 74 09 D8 7C 75 B7 7B 63
 5D 69 DB 77 F6 B8 59 2E D7 3C F0 FE E5 7B 87 D4
 45 C7 21 67 B9 ED E3 48 0E DB 38 D4 63 62 9A D4
 21 49 1C 53 C1 C4 2C 7A A0 5A A3 94 26 E0 A4 CF
 F5 34 20 EE FA 21 C1 7F 02 A9 D8 CC 10 47 99 CC
 04 11 FF A5 A6 15 81 63 18 EE 67 36 67 CF 05 D2
 BB E6 B6 A9 4D 89 21 83 E6 FC 6D 6B 01 D7 82 89
 5F 9C 2D 55 4A 69 FE 61 FB 53 D4 31 5E 86 EC 24
 35 80 19 A8 53 AB 48 82 F5 93 B0 5A 64 32 B9 8F
 A1 AC B0 89 3B F1 15 86 56 B5 7B 0D 22 49 68 BD
 23 6D 25 01 EE A8 32 A7 C9 60 55 06 44 E3 A6 AF
 FB B2 98 FE 04 FB DF 44 6F AA 1B 95 8E DD C4 D0
 47 66 F1 2C 8E 8D 1E BE 41 80 ED FD E5 A0 FB 19
 18 CD 15 56 44 24 DB 56 78 FE B4 A0 4E 13 60 C9
 7E 9D 28 40 01 FC 40 3C 67 DA 98 08 98 7A 27 BC
 50 EE DC F1 95 D2 63 82 51 4D 49 AF F3 C2 F5 CC
 59 5B 19 B0 D7 83 18 FB 18 5D 08 52 80 E0 35 99
 80 F9 24 F9 31 D3 B3 02 BC 9A 87 4E E9 8E DA 11
 D2 88 70 75 0B 2A F9 A8 0A B8 2F 6B AF C1 EB 07
 BC 40 36 2B B5 59 17 2C 1F 91 FC 36 2D 4D 09 3A
 AB 9B BF 29 D2 59 3E 5C 82 18 0E 30 D8 AE 2E 62
 22 95 CE A1 2C 7E 84 22 C9 8B CB 20 B9 FE 36 52
 A3 DC 33 55 20 0B C5 BC 3E 19 EE ED 03 0E AF C9
 20 24 B2 14 19 B9 AC 46 9D D5 A4 0B 4C 61 29 60
 4C 23 4B A9 5B 11 6E BD B9 BF 51 E1 61 9D B0 67
 7B 47 5A 5A B3 BC 3C 94 D9 5C 48 57 28 11 B5 91
 56 ED 31 33 2E C1 1C D6 31 A6 AA 65 55 8F B6 50
 6D C2 0C 9E 39 74 67 4B DD C4 97 6D C4 62 5D 25
 72 1B 65 06 A3 8D AF 61 4A 6E 3C E2 D4 B3 92 37
 32 3D E5 17 F4 5C 5F 9F 08 A9 38 DC 86 0C 1E 41
 DF 5D D1 4B 25 B5 C3 D4 84 7E 2A DE 31 D9 30 ED
 27 1A B0 1C CE B5 0B 46 EB B1 21 73 79 8A A9 D8
 A7 4D 53 93 CB 73 95 85 6C 22 48 46 17 1F 67 80
 DA 47 E9 A5 C9 3B EA 88 2F 73 C5 28 15 FD 1A C2
 CC 5A EE 06 1F A6 01 50 0E 1E FE 24 A5 9D 4D EE
 19 F8 DD E0 6F C7 CA DD 35 C1 77 FD 4F 2A 28 B8
 27 EE 95 CC D4 C8 2E D9 44 7E 21 5B 3B 08 13 38
 B7 52 A5 2F 84 0D B9 BB 3D F8 99 22 CA FB 9D F2
 CF 17 87 64 E4 15 ED E0 53 F3 71 0F 89 13 9A 57
 BA 38 C1 B0 1F 32 83 CD 90 B8 3B 2A 62 ED 8F D6
 22 67 89 92 D1 D2 3E 78 1A 57 41 BF C8 F2 45 7C
 C2 98 43 04 AA 05 40 DE EE 98 A4 7B 8F 0D 6D 25
 FE EF 1C EE 5F 71 BF 2B FF 1E A5 54 1A 4A 0D 52
 5F A8 3A E7 67 6E A0 AD 26 44 31 2F F5 15 85 5D
 7B 25 B2 25 9C 02 69 AD 7A DC 92 19 F5 95 93 4C
 5C 71 5C 7B 67 F9 7D 68 96 A1 10 92 E8 6D 28 3B
 A4 1A 84 CF 6D 06 8C 10 85 7C 53 6D 7A 04 76 A4
 AD 1D 9D 09 BA 21 59 6B 36 C5 F2 29 D7 A8 7B 78
 A1 61 A1 83 48 E0 1D 87 60 E6 63 A2 2E D2 7F 8D
 D4 76 79 98 4C 84 58 AE 89 20 0A 38 86 55 D1 5C
 55 F5 E0 D8 E4 EB C8 85 5A 3A 0C 33 C4 C9 7D EE
 D0 10 B4 03 D1 1F 0D 81 8A 9A 85 6E D6 17 92 46
 3E F7 B6 89 D9 CE 55 21 E4 91 B3 5D A6 B6 64 38
 B3 7D 38 65 B4 70 96 F8 A2 3A 67 CC 66 38 48 6D
 89 EF F0 E2 0D E1 9E B4 11 0D 4C 8F C6 CB 7C D2
 00 6E B2 0E 02 38 DF 67 98 0D 8F A5 33 41 C4 83
 28 2B AD 8F C7 07 78 9E 7E 90 1F 74 2C D6 AF 4C
 F1 46 7C 72 B8 A4 F5 F1 0E 3E 6D 30 7C 61 53 C5
 C9 D7 AB 05 31 29 50 16 97 64 F4 62 12 EB 3F B9
 B8 13 84 5C 63 D0 7C B7 A5 B0 84 13 AC BD 2C DF
 0A 7C E4 27 6C 06 15 0F F8 07 86 74 46 89 C0 35
 88 71 C6 2F 04 89 38 84 55 1E 87 91 FC C3 72 AB
 A3 5F EF 50 99 47 DD 05 55 14 CB 06 56 A9 C5 BA
 80 C3 E4 6D C4 36 C7 CE 7E D3 32 14 14 B5 C6 04
 74 E3 10 8A F3 4E 06 7F 6B E7 5D 7C 65 86 2B 19
 C7 EF D9 FB 04 B7 3C 99 5B 44 3B D2 9D 50 3B 67
 84 E2 43 E4 1E 39 68 A2 07 80 C6 23 DF 2A AB F0
 6A 02 05 72 B2 D7 75 0B 17 13 AF 7E 59 E6 59 99
 9E 34 64 D7 3A AE 13 84 02 DB 36 3C 29 DB 53 21
 36 0C 12 C2 A2 D6 E1 19 DC 7F C3 57 98 EA 47 92
 AF B1 77 4F 0A 2C C7 1E 79 F6 4F C7 E2 D4 4B F5
 37 62 5F 5E 22 2E 6C 11 46 84 70 64 67 DF 6D 72
 D3 C1 68 E5 44 8D 6A 78 D3 62 D8 2D 09 EB 80 5E
 04 AD 84 6B 3A 88 3E 3D B0 37 A1 E7 88 D5 39 13
 D8 F4 E4 7B 0E A1 02 D5 C2 20 B0 72 51 5C 77 3E
 20 B2 82 F4 72 E9 18 D5 EB 29 6F E1 2A A9 71 64
 51 79 D9 D7 FE DE B6 53 7E 04 58 51 BF 9C 23 F9
 E5 CE 8C F3 2B 77 34 2C EF BF 50 51 BA 32 AC E0
 07 41 67 CE F6 A9 D9 38 E0 9D ED C1 68 93 3F CD
 41 A6 45 C7 0E C9 5E 8D FD 20 29 63 32 BC E3 28
 BE B2 9C 86 7C 91 BC 86 81 8A 90 0A 30 89 DD 80
 D2 A5 50 24 8F 3A C5 14 F6 86 FE E5 59 39 4C 17
 C0 C5 AD BC 51 DC AF ED 34 4A 11 05 77 AB 9B B0
 04 AA 07 99 D0 D5 13 04 12 54 C8 34 BE 8C 77 1B
 7F 90 F7 E5 6B BE 72 CE C7 79 B1 3E 63 04 29 12
 8A 9D 83 E3 18 2A DA 83 25 29 31 CD FD AE 18 1F
 83 80 69 B3 B5 E1 12 4B 48 8D 03 CA 27 B5 91 8B
 5B 88 88 C9 05 18 D8 E4 F2 0B 92 D8 4B 2E 0D 1F
 1F CF 8C A1 02 30 46 F5 A0 F6 95 F8 31 0A 10 A5
 C5 5F 06 35 66 E5 6E 61 25 B2 93 A5 53 AC 02 A0
 EC A8 73 58 A3 C7 C2 1C C4 20 B1 2A 4B CD 17 FE
 97 7A CE D5 DB 4A A1 2F 53 90 9C 82 59 24 13 CE
 CA F0 E2 8F DD 80 9D D6 DE 70 21 FC 21 FF 1D D9
 51 E3 E0 E7 F9 EB 7F A4 EC 6A 30 10 27 CB 73 9B
 D5 58 C9 03 B6 F5 5C 32 63 0C FC 6E E2 50 BA 14
 A4 13 F6 95 53 E4 3B 89 B4 10 54 5F 0E F7 FA 55
 50 9D 3B BA FC 8B BA 41 BA 12 81 E9 B8 AB D9 49
 3C E9 26 34 18 86 49 3E 2B FD 08 31 22 30 84 AD
 8F 63 22 7A 9A 2C D1 94 14 D0 21 09 0B 38 E9 A3
 F3 17 9C B0 82 AE F0 66 AD 3C 8B 64 72 72 7F 42
 C7 09 AE 77 4C F5 7A 23 49 F6 3E 05 AB 3C D1 34
 1D 66 5A E9 8D 88 9A F7 9F 83 F6 80 53 FF 2A B0
 A3 56 7A 77 3B E5 A9 2E 66 DA 7A C4 AF 9E 64 F9
 A7 6E A8 C2 D4 45 3F AF 2B DC D4 69 F1 35 4D DF
 17 42 B4 47 63 13 74 24 94 79 8B 4E 13 86 BD C4
 A5 E1 39 99 93 87 B7 43 9A F6 24 00 43 6B 1F E0
 6E D0 12 03 EA 02 77 E2 C7 B8 0C 55 0C 67 1B 5B
 C9 ED 17 2F DE B4 70 DE EF 53 03 FD CD 84 AD 84
 B8 46 53 83 91 6A 2B E6 50 F4 12 58 FA C0 93 96
 5B 60 D3 52 22 13 4D CB AE 80 E9 06 74 4F 22 1E
 15 AA 7B F0 F4 47 73 6C CE 76 D3 CF 21 1C A7 B2
 DF 1C E4 EB 44 6B 26 1B 70 E7 22 81 46 E8 CE 86
 E6 A4 32 28 69 19 BE 79 B8 10 09 B8 A1 E8 EC 43
 EB 58 35 C0 87 C9 C0 41 A5 89 4C 56 01 33 AA B5
 39 B8 B0 16 94 A5 8E 60 0B B0 9D 9A 84 A0 B8 40
 DD 56 D5 45 82 6C 53 7B 54 20 E8 CF 05 7A EF 32
 C4 24 23 C0 8C 27 A9 D4 CD A1 53 DB A6 FD 96 39
 CB 5E 97 82 33 60 E3 6C 29 E3 3D 03 5B D3 D4 CB
 3B F9 DA DC DE B7 6F 41 E5 DE 65 1F 24 5A CB 78
 94 78 2A 2C A2 3F E3 A8 C0 F3 98 C5 AA A5 7A 64
 36 F6 01 6E 4E 38 1E 39 B4 5B D3 9B E6 77 7E 53
 F1 16 4B 12 A1 23 F4 E2 ED AA 6F EE 43 F5 CD BE
 E4 BB 94 49 CF B1 F8 66 E2 92 10 73 21 29 5D 22
 E9 B2 EE A8 F3 73 D2 7F 21 70 7D AB 28 C6 79 8D
 8C 7F 3D 9A BF B2 4F EB 56 2D CF EC 0C 76 F6 AE
 8F 9B 98 81 60 2E BD 09 7E 0E 75 78 C4 2A 43 0E
 1E 76 D6 7F 48 BC 8A A1 EC 51 89 67 33 3C C1 A2
 D4 06 54 9F 4F 4F 6D DE 6B FE FF A6 85 24 BA 4B
 00 EA E4 C7 8A 64 26 82 05 F2 33 B4 AA AC 94 47
 97 50 BE 00 F1 55 03 BC BF C5 4C B0 59 E6 26 C6
 81 7C 7E C5 77 71 E1 F7 B3 BA 31 04 30 97 AF 8F
 9B 30 AA 45 87 FA E7 15 92 12 60 CE EB 5D E5 3C
 EA 47 A4 B0 20 84 04 7E B3 51 B9 72 CC B3 2A BA
 55 05 0B 67 D4 AA AE 88 CE CE 35 9D 72 FD B3 7E
 E5 6A F4 DC CF 79 A6 A2 74 8D 16 AE FD 17 B7 FE
 73 86 2E 55 B4 35 2A 44 E4 E1 78 13 96 03 DD B6
 48 F8 27 59 C3 02 60 72 C1 60 AD 5A 3D 36 98 89
 50 7B 28 AB AF D3 BC 64 03 BF C7 69 BA 27 12 52
 53 65 DA E4 8E A6 58 D5 90 34 58 7D B4 3B 71 FF
 E3 99 EB 24 8E 7C 5E E9 6B 1C 6A CF B7 12 68 1F
 E0 E3 BC 31 C3 26 27 AE B8 BA 62 E5 90 F1 5F 14
 29 30 7C 06 87 67 3D 74 DB 6A 7A 04 94 3F DB A3
 C4 3A 84 20 C4 80 DB 30 21 86 AF CB 61 98 1A 78
 13 AF EF 31 63 19 17 E7 B5 35 80 45 79 42 AE EF
 84 97 84 25 9C 30 C6 FE A7 86 8C 19 C3 3E 40 6E
 4D FD A3 9A CB D4 FA DC 97 0E C1 D5 6F 5A 68 4D
 E4 F8 3A 24 42 D6 B3 57 92 26 80 13 F4 D5 93 A5
 F3 00 2C 8E BC 8C 0D BE CA 77 2F 8B 3E F8 62 4F
 17 59 94 BB 72 00 66 4D F9 6F 9D 3F 46 D6 94 0E
 EF 8A 76 E2 20 9C CF AD A8 DE 70 F1 D3 4A EF A7
 62 8F 48 AB B4 BB 94 BB 20 8F A7 B7 E4 32 6B B9
 95 C5 5E 2F 82 BA D4 50 C8 C1 CE 02 BE 47 90 AB
 41 69 B8 24 EC 87 7D 58 DB 59 35 32 55 51 82 AF
 6E 2E E6 BB C2 82 05 B2 A6 BA CF 06 15 D8 B0 22
 68 65 63 9A B5 17 84 AB F4 03 87 7F 5B 8B 85 F1
 0D 24 2F 2E 23 79 EC F1 AE 75 D1 91 09 D2 42 E8
 39 3A 06 24 E2 7A F8 6B AD 1B 11 D1 55 7A CA E5
 39 B3 D0 8A 5F 5E F1 97 1C 61 D1 17 86 EE 54 72
 E1 2F E5 B0 5A 58 3E 13 5F B8 A4 22 22 22 15 47
 24 51 42 74 DE 2D EB 0F BC FD 10 0D B3 75 28 99
 7D 95 6C 74 0D F4 F2 20 8A E7 21 D1 46 CC 45 6B
 ED E9 1C EB 49 B3 C9 C7 7B 11 9A 5A AE 54 9F 4A
 15 07 CF 95 96 48 47 37 6B 4E 57 61 F3 19 3F 47
 C0 E0 C4 89 D8 A9 69 8D 3D A5 EC 8C 9A 49 93 79
 24 BC 2F 5C D6 8C 23 74 3A 56 0A 3B 77 EE EA 9B
 A3 D2 1E A9 FE FB 3E 46 3A 4D EA 11 75 2B 34 AB
 68 C1 B4 58 D4 39 43 44 62 80 31 5C 2B DB F0 A9
 27 FA 98 77 EB 79 78 B7 7E CB 68 85 28 07 9E BC
 93 DC 9D 0A 66 1C B6 3C 7A B1 9A 2F EE 8D 21 59
 CE 74 3A CC 4A A1 11 79 98 DA 96 4F 96 B2 84 65
 C2 DF A4 7F CE 5A BB CC 56 07 D0 47 AE 9D 60 3A
 EA 1A D9 B4 F0 31 64 14 8D 1E 1A 00 8F DF 66 DB
 B1 AC 7C E8 C1 A4 57 56 C8 0D D3 F5 93 8E DF 15
 3A D1 9E 01 9E 0D B8 74 7F 9E CA A9 C3 03 9F E7
 81 21 65 06 21 4B 1D 67 4F B6 A0 58 63 4E B1 4A
 B0 E2 A3 DC 47 E4 CA CA 2B C1 4E E0 F6 68 71 57
 18 16 25 AA 3D 29 4E 07 F2 2A AF 35 FD 25 56 9F
 7E 85 6C 9D B6 CE A9 71 B5 31 AD D4 53 9A CF DE
 B1 72 F1 F3 6F 41 EE FF 3A AD 15 86 8C D3 24 AB
 82 F3 21 75 BB 1B E3 97 AE DB 02 FE AA C1 99 69
 2C 02 8A 04 A0 F3 1B 98 0D 4A B3 88 A2 F7 68 36
 40 02 FB 19 54 20 00 35 2B 1F AA 04 45 96 9B EC
 C9 14 44 3E AD D8 CA 9D 6A 76 AF 6F 29 A3 7B AD
 87 3B 18 86 C6 84 2B C1 A8 BB 69 5F 0E FE 2A B4
 F2 6E AE 01 23 F1 1A 29 4B 3E FF A0 F4 4B 7E 47
 64 A9 8D D4 03 30 D2 44 B8 85 73 5A AF 5F B7 55
 95 E7 62 EF 50 F4 2A 50 74 55 A6 78 76 CC D0 6C
 3C 76 19 30 F0 91 33 98 F2 61 17 56 1D 57 A7 63
 52 B9 33 35 65 56 3C A6 FD 4A BB B8 C1 6B E8 C5
 11 CC 0B A1 31 F1 98 21 BA F3 92 56 7D 4E 20 A1
 FF E1 39 6C 4C D7 95 EF 64 D6 7D 3A FE 7E FC 84
 EA 6A 43 92 94 04 7D F8 C2 C3 65 58 0A D5 06 EC
 B2 F8 9C 36 6E F8 21 1A
* End 1717404335 1491129521