* LTspice Encrypted File
* 
* This encrypted file has been supplied by a 3rd
* party vendor that does not wish to publicize
* the technology used to implement this library.
* 
* Permission is granted to use this file for
* simulations but not to reverse engineer its
* contents.
* 
* Begin:
 34 D2 4A 3D 0D 65 C4 D5 93 77 CD 4E 69 48 97 CF
 DB D4 BA E9 07 31 F8 E8 2E 4D C1 5C F6 CC D2 A6
 5E 73 BE 8D FF C0 51 5B BD A4 4D 2E D3 4A 08 3B
 55 34 D4 2F A6 15 E6 A0 B0 4C 48 1A 8C 92 BC C4
 13 70 B7 ED E0 15 A3 EA 88 D7 A7 CD 5E D1 2D 0E
 83 98 38 63 27 72 B9 33 2B 0A FD F1 EA 53 BB 20
 05 5E 11 48 31 0E FF 92 51 3E ED 40 16 EA 97 70
 9C 8C C1 ED 13 66 29 3E 82 CC 04 6F A6 65 E9 B7
 AD 2E 43 6C 98 19 ED 22 EF C5 28 5F 04 8C 01 9D
 BB 13 9D 06 97 43 25 83 C6 33 00 4F A6 5C AB E0
 2E B8 DC E5 7E 10 0F 44 30 C5 86 EC ED 48 0D BB
 5A 95 87 8C 08 23 6E C6 4B B6 EB E8 FF 12 6E 8B
 75 5E B1 32 4A F2 0E 5D E0 04 CF D8 FD C3 6E 75
 0B 5C 09 A4 B1 31 6A 5E 84 78 96 4D F8 74 9A E0
 96 8A D8 C4 FC B6 6D F2 EF A5 F8 F3 79 71 24 69
 8B C8 82 57 EF A0 35 4E 7D AA 68 B0 56 91 FD C3
 82 DC 1E FD 1C 53 2E 7A BD 70 CF 18 3F 99 E3 10
 1C 05 12 2D 8D 7C 10 CF 83 C8 43 90 4E 57 0A D3
 5C B0 F9 34 F8 09 D7 F3 31 5A 51 0B B1 2C 79 62
 3E 14 10 C9 1A C0 C9 0E 83 54 71 E2 97 28 0A DF
 29 20 72 8B 36 F8 9F 91 A1 B7 22 DF 23 92 1C 66
 33 BE C3 F6 BB FB DD B9 18 CA 1B E6 66 6F B1 41
 F5 87 96 79 8A 90 61 3A 2F F9 5C 25 76 66 23 91
 20 33 FC B4 04 4E E0 49 F3 51 76 C1 7F 0B FA 96
 5C B1 C6 51 1E 22 FC 97 3D FE 24 68 91 61 C3 36
 0B 3D 8F 6C E0 8C 3D D8 6E A0 77 15 C7 59 AB 1C
 B8 31 5D EA 22 E3 F6 E2 0E 1C B1 E3 8A 63 8C 50
 60 B1 AE 90 04 D6 A9 00 CA 65 C6 C3 43 F5 55 58
 0E 4A B3 A0 83 75 CD 57 DA 28 C4 EB 4F 3F 6F 9B
 F1 87 10 84 11 6A BA 71 27 7D 53 26 A0 5B 27 F5
 03 6D DE C7 C0 85 5F 39 53 87 7B 7A D3 22 56 35
 87 33 B8 16 0F 5F EB A5 E0 36 B1 9A DD 2B D5 36
 BE 20 B7 28 EA 1D BC AD A0 C4 F8 FF 7F D5 E2 87
 A8 99 74 16 D3 9E AA DC C7 7D 5A 92 C5 D7 8B 77
 9F DD 77 F7 DE 1C 48 2F BD 6B 6F 8C 89 0D D6 1C
 87 BA 84 B1 D1 99 CE A6 53 8B 92 B0 37 33 4A FF
 B0 C7 A3 1B 93 5F 9D E4 BA 4C 43 1E 4B 84 42 F3
 EC 85 90 62 3A 27 84 D5 CC 7A FD A3 0B D8 9A E5
 98 B4 2E B8 0A 92 EE FD 3E C8 A0 A9 E4 31 EC 79
 B4 5C 02 13 76 C6 39 2E 26 4A BF 08 B8 0A 46 91
 EF 60 C1 18 33 78 A7 94 55 F9 E0 5F 5F CD 21 B8
 44 EC DE D3 BD 7C 77 4E 3F 30 0F A3 1F 95 39 7B
 F0 B7 88 C4 8F 57 9C 89 57 7F A3 38 BA 20 B7 7B
 61 91 66 1F 5F 19 DC 8E 93 FC 6D 30 2E 26 53 5B
 92 0D 3E A1 53 54 7A F0 3E 04 40 2A 48 DF 91 D6
 39 0F 52 50 89 64 5E 0A B2 66 0E D7 12 F8 1B CC
 C3 F0 20 57 BE 71 33 8E F1 5B F6 1A AA 94 B5 A3
 B9 07 AA 38 47 61 3D BE FD 87 89 CC D1 6C CA DB
 8A 5D 69 0E A1 F2 6E 05 E5 83 AA 99 2F D0 0B B7
 C3 AC C3 D3 FA 5F 9A 83 D0 06 D7 CA 01 26 46 D5
 3B 12 93 BF 98 38 F1 D6 C6 32 C5 82 61 0A A0 0C
 E8 88 FC EC 61 86 11 DF 30 57 21 39 75 3E 9C 38
 FB BC 67 3D CC E5 5A C8 82 51 E2 56 1F 73 21 4D
 81 39 C5 52 FC 79 5D 6A 22 F6 88 D4 B2 8F C3 0E
 A4 12 C3 61 DF 56 AD A1 3F E4 23 AE A8 E7 21 C6
 5B A9 E6 2B 39 61 E2 73 1C A4 C7 B3 02 C9 56 10
 B8 D3 9C AF 7B ED A2 B7 DE E6 81 26 46 DC 7B 84
 A7 E9 D7 32 E0 E3 48 63 DD 35 5A F7 9A D4 10 E3
 5A 14 9C A0 85 FC 4B F3 04 E2 23 0D 55 39 07 30
 22 BF 64 CC 29 D6 6F F6 C6 51 9A FA 8D 5C AB B5
 4F 70 C5 B2 19 1B 98 30 6D BE 73 4E 11 BA AB 44
 C5 47 49 24 F8 2E 0E 4B 2C BF FA F9 CD B4 52 6D
 E0 20 E9 FF 22 C1 2E 21 8F B0 8F 58 F7 93 89 76
 4F FF EE 8A FF 84 E7 A8 5A 89 9E 00 7B BB BE 8E
 DD FB 49 B5 09 1F 45 68 98 5B 9F 95 3A CB CA 6F
 81 59 A2 D2 99 62 55 49 A8 84 6C 77 48 97 B8 7A
 B1 B4 4D 5C F3 B8 38 F1 2E E6 E9 7E F5 3F 0A 0F
 CF A3 52 42 02 6A A6 16 C7 26 6B 7A 6F 8F 1E 53
 BA 2A 41 FE D1 3D 51 FB 05 F5 A7 A2 24 4C 90 6F
 45 50 92 5A C3 AE A6 5A 19 17 C4 E0 61 26 77 72
 08 2A 16 80 4A 58 08 BD 4C B9 23 F5 94 B6 FE 4D
 ED 1C D5 33 59 57 68 68 C0 F6 35 AB A7 08 B1 C3
 94 C2 B5 32 03 C0 FE EB C9 FC 1D A6 15 7C 7B 89
 AA F3 C8 0E 11 5A 01 5C 4D 0D 98 51 54 63 6F C4
 01 E1 6E 42 1F 9C 1A 3E 4B 80 D4 D7 EF 6F F6 A0
 10 90 F0 86 28 58 DF 8F A6 EE 6C 36 DE 5D C7 85
 8D 20 D6 F7 4F A2 2B 95 71 7A 2F 4D ED 48 D0 F2
 53 91 07 AC 7E 7F 2B D4 E5 AC F4 33 9D A1 0D 26
 14 45 1C 02 5B 28 EE 9F E7 47 0C 45 1F 8F 04 92
 4C 2E 71 A4 53 84 9E 51 92 FD 97 EA E4 35 5F FF
 77 F2 ED 54 D5 6B 45 62 D1 0A 93 CE 5C 29 1F 82
 A3 FF 54 D1 DF 50 C3 E1 AA 5B 55 B9 D5 90 7A 7E
 40 53 9F 06 35 16 CC 33 02 55 94 94 F7 D7 0A 5A
 08 FC 71 85 2E A2 1B EA BE 67 28 73 26 BB D7 AE
 8D 05 31 FA 60 3B 08 AB 06 AE 37 34 86 76 38 54
 40 38 B7 3B AA 72 71 BC 0F 8A D9 1B 69 96 4F 64
 FC D9 53 F1 F5 FB D5 FD 4D 5E C1 36 36 0F 0B 60
 F7 EF 62 C1 38 F6 D0 0B 85 67 AD C1 DD 32 2E 5B
 58 C1 86 23 79 54 DA 9C E9 42 ED B4 05 24 C1 37
 8F 1F E8 42 2B 8C 79 A9 2F 65 7F DA 27 D0 5A 2F
 46 4C C1 24 3F A3 4F C5 49 B7 58 1C 0F 7A C4 0C
 7B C9 2F 64 FE 61 D4 9F 35 C4 37 88 50 92 EE F1
 9E B7 AB 8A 15 42 3F B2 08 14 A1 AB 06 DB 84 7B
 14 2C 91 C7 28 E5 FB D7 04 84 0E 75 C5 DC 0F 2C
 03 DD 07 1A AE BF 88 58 89 27 9C 40 D6 4A 38 2F
 53 3B 91 AE 1E E1 25 6A 24 9B 8B 0F B0 7F B5 09
 2A 4A AC 09 81 9A 86 D5 5D AA AD 87 01 42 E6 6B
 07 0F 32 58 60 E2 F2 2E D9 9E DD F9 15 06 5D D8
 1F 9F DD D7 6F 16 E4 6F F8 DC 06 D2 45 C6 3A 97
 30 5E 10 65 F7 C6 23 63 E9 1D 06 E3 24 D4 78 9D
 2C E8 FD BD 5C 15 D1 35 F5 15 98 1C 34 8D 9F EF
 B4 2B EF 82 EE E1 70 EB A5 0B F6 3F 85 87 78 41
 65 02 42 15 0C 45 A9 DD 87 93 05 B9 88 A4 58 48
 D7 03 0C E3 42 1F 71 C9 B1 5B AA 16 D5 03 76 B2
 D0 75 55 30 13 03 DB D3 9D BB D8 A3 7D 8A 71 65
 6F B3 CC 9A 61 C1 B9 19 F6 75 C7 F5 FE 4E BF 71
 FF 91 E0 91 20 D1 6C 27 F1 82 C2 0E 0B F5 1F F2
 97 D7 94 0D 72 58 4A 0C 65 7B F3 14 EA C0 87 E0
 DD 3B 31 F1 C2 9E 36 E8 A6 6E 52 85 04 E1 89 AE
 A3 07 DF B1 9D 97 D6 52 6F 3B 56 E8 3D 64 0E AC
 E7 A3 50 1A 1E FF DA 52 E8 21 63 E1 1F A0 07 7B
 4E 7A 7D 1F DC FD 54 89 B9 30 61 8D 6F BC D6 5E
 50 45 D9 C7 B9 D1 D6 41 AD 97 BD D7 5F 9E AC 97
 61 20 37 07 14 59 8C 98 C0 82 FF 98 E1 A8 5C 1E
 CA D9 F7 54 6E 7A C3 42 D7 AD FD 56 C8 A1 92 2B
 3D F3 DD 47 83 F1 6A 2D 30 E1 E1 2F 0C CC 75 1A
 D2 B5 F4 4C 99 B0 D1 7D F7 7E 0F 95 3B 5E 1D 06
 B3 2A F8 36 76 CB 45 FB DC 8D 91 CF 84 58 8C 3E
 A9 0B 8F 79 42 16 4E 25 64 3F 91 4F 38 C3 F5 B1
 B3 2A CB 3A 0C D3 1A 49 30 84 0F D1 79 85 4E 3C
 69 19 80 94 40 68 3F 48 A4 7F 16 31 23 13 8D D0
 D8 EF E0 8E 0B FE 82 99 90 BC 06 82 33 B2 24 8A
 42 A9 89 45 0C C1 7F 36 E5 F2 B4 9C 0B D3 39 C4
 C9 2D B4 0E AD 0F 4B 22 53 46 1F 8A 43 FB 4A 37
 DF 97 94 DB D0 69 2B 19 23 CD 3D 39 AC F9 FA DB
 13 84 F8 30 70 AB 16 6E 48 30 E2 1B 8C 98 55 A0
 B0 F6 E7 8C 4B 58 93 05 08 17 9D EB 09 05 B1 A3
 B4 A3 BB 6C B1 DA 04 13 8C 81 0B 59 EC CD 81 E0
 01 3C AD 41 D1 27 68 9C F1 BB 3D 24 FD F4 9F D0
 8B 7A D0 D5 E2 E7 76 32 C2 55 4C 86 2F AC 2B 93
 5D 14 35 3D 9F D7 69 35 A6 F9 F9 76 12 0A 6A 23
 2B E7 7B CF CF 8B 9B 73 C1 FC 45 3D FA 46 75 4D
 40 4F C4 A4 FD 70 6C 1F C2 97 57 FB A0 3C 7F F6
 AB 98 AC 0E 1B 80 D0 D8 E5 F2 BE 98 3D EB BE 9E
 CB 00 2E D4 7F 8C B9 D0 11 D6 44 3C 45 5A 1D C8
 D4 15 58 CB 55 8D F2 2B 27 47 7F AC A4 B8 82 81
 09 26 55 C1 04 59 CC FD CC 51 20 E2 B0 B3 16 A6
 EA 62 8A 7B 1A F1 73 2E 2B 0E 43 D6 56 85 8E 76
 06 E8 21 A2 0C 8B 5E E5 55 3B 6F 10 86 5E 55 DF
 91 74 0A 01 10 03 FF 46 46 CC 0E 67 2D B1 73 45
 29 CE 9A CE D6 63 FA 67 D0 84 9D E2 07 1E 90 2D
 45 29 D5 D1 FF 74 4F 18 37 B8 92 5A 1D EE 7D 52
 F6 52 29 4A 8C 93 1F 25 B5 A7 4A 64 EF 2B E7 EE
 16 6D CD 98 39 90 19 0E 7B 66 AB 58 11 62 5F 05
 4E 13 D6 38 E8 86 32 01 70 5B C1 51 49 50 F1 CD
 29 EE 8A 69 41 D9 EF F6 EA FD B2 6F 77 24 EB C4
 97 08 F4 AA 5B 2C 7F 3C BA 55 2D EA CB AE 6D AD
 60 2A A7 79 3D B5 AC E6 93 A1 2C 61 06 EC 18 3C
 73 CB BB E3 CD DA EB 4E B6 87 A8 14 30 9F 33 D6
 3F 2D 8C C0 22 BB A1 F1 A8 8E CA 94 BA ED 54 AB
 D6 B8 2D CC 16 15 05 EF 4B 3D 24 58 E3 16 BD 8C
 36 C5 28 EA 6D A9 B5 82 E5 E8 87 E1 13 06 05 E7
 F5 3E 24 EB 06 D5 C9 C2 1D D6 D0 F3 C0 03 E2 CA
 EC 6C 2B 88 26 B3 A3 60 27 EA D5 55 E4 5E 39 A3
 14 BE 01 F9 3C 86 5C 76 75 68 5E C4 E1 B4 7E 4E
 48 7F F2 BB D6 31 7C 46 0F 16 89 1C DA A0 88 BC
 76 E1 FE 5C 04 F2 1B 94 1C 1F 17 28 FA 76 93 9C
 B7 F3 E7 AE 20 B5 75 26 28 52 DC 7F 5B F3 55 02
 8C 16 D9 80 19 39 D7 E8 FE FC E9 EE 6C 96 66 6C
 B5 5E D3 9A 9A 52 80 CE BD CA 7F 2F 98 E7 4D 86
 65 34 50 FA 8A 6E 2E 6D 56 D4 4C 23 17 DB 58 42
 5D 20 13 9A 51 90 D9 C1 48 40 A2 4B E6 B6 07 D0
 6F 92 3E 89 C1 BC 5B 4B 1B 41 FE 28 0F 6B 73 02
 90 7C C9 72 B8 1D 3E E4 90 4D 02 D6 F9 4C 3D 45
 A8 33 0E E8 39 48 CF 57 91 F4 FE 4C B2 AC 90 C3
 55 F5 2A 8C BB D5 32 42 A9 CA 7A 4D 7B 64 85 B8
 22 53 99 A3 42 E5 68 E1 E7 3B 03 CC 75 45 E6 38
 F6 14 35 E6 9E 25 90 2C 40 CF 8F 88 83 D2 79 01
 CB 5B 3D 68 01 BD B7 39 10 86 AD C8 31 F0 6B 70
 9E 25 68 DE EE 32 BA E8 A5 80 22 A7 AD 82 EC A2
 DC 35 1A E5 0D F9 DD 09 8E 23 8C 85 F9 0F 14 41
 AB 0A 81 74 20 62 0A 59 BA AF 6F 6D B5 1D E6 B4
 78 54 6C 9C 04 42 14 3B 39 28 77 C5 31 83 BD 6A
 B9 0E C6 9F 9D 17 C3 44 39 59 DE BD B8 4C 77 E7
 7F AE 1B 01 C7 75 A1 A8 F1 3B 7A 69 22 2D A8 25
 11 3F DE 9A 9D B6 F6 96 32 89 FF B7 8A D1 D3 99
 0C A0 1E E9 FE B5 AE B9 35 F0 24 3F DF 37 81 A3
 B9 6D 28 9C 3A E5 6B A1 0D 0B C5 E0 31 FA 99 20
 51 BE A9 C5 C4 8D EE 51 24 33 12 52 68 13 93 AB
 3B 3D 5B 54 27 B9 5E 8F B9 A2 E3 6F 59 B9 6D F1
 80 A2 29 30 A2 13 BF 58 05 64 6B DC 6A 2A 29 0C
 90 FC 1E 22 5A 35 99 15 95 E2 5C 0B 10 CB 73 2C
 3E A2 42 7B CE 55 45 29 1C E7 E3 68 64 EF 5F 43
 E9 B7 07 A5 70 C4 ED 1C E1 A4 37 AE 4D 3C 01 D9
 2E C3 E1 5C B2 75 9D 06 73 FB DD 09 87 CA A2 EA
 A8 69 89 2A D3 AA 02 06 3D C3 7D 60 E3 2D BA 72
 A0 71 2A 3C 86 CB C8 79 49 C0 BE F2 8D C9 95 F9
 D2 66 5C CB 61 CB E0 EE D8 E3 E5 D4 9E 46 71 4E
 6F 14 31 B9 8E 56 75 4A 91 54 9A 2A 71 93 F2 75
 E6 04 0D 3E CD D8 A5 02 30 AF C1 3F 24 8C 09 6C
 EC 86 DD E9 90 D3 88 89 2C 51 E8 B5 30 CC 9A 3B
 A1 22 2B 7B 80 AB 50 99 B0 EE 14 F7 59 0E 81 32
 CF 94 B9 5A EF 92 94 9D 3A EC 47 84 68 B9 AA 46
 D4 06 0C 55 6E EA E0 71 00 39 FE FD 05 23 E1 98
 47 D0 AC 4F 16 35 B6 D8 66 AC 08 7B ED 76 F0 57
 55 D8 D8 34 2E 1C FF C7 4E 13 64 3D 5D 20 57 2F
 80 A7 A9 A1 9F 94 E0 6B 2A 35 B3 D8 F8 E9 B5 CB
 89 69 A8 7B 8B 31 7F C3 9A 08 3E EE FD 46 64 CE
 61 D0 42 73 7E C4 84 8D 74 F5 D7 36 70 3D 01 A5
 72 CC B6 6E DD 2B 6E 90 1E 8A B0 4D 54 6A 9A 1B
 43 61 6E 12 FE 85 F9 22 3E 52 42 11 C9 91 DB EC
 88 0B 66 F6 CD 89 6E 57 29 24 FE 41 18 23 25 8A
 9C 06 92 38 D3 A9 75 96 2B 90 63 D9 F5 56 1A 37
 8E 7C 80 62 19 ED 00 90 FB 80 5C 95 E5 A7 A3 42
 77 29 AF 26 C2 0D C2 3E 05 3F 99 05 D0 85 C8 78
 A9 5A 11 F5 A9 3C 53 81 89 FF 9E 18 78 89 37 C1
 E3 71 02 B5 EF 2E B1 81 E2 92 23 B0 64 ED 7D A7
 A5 95 3B 40 DF EC 13 E7 85 30 58 36 79 E1 B0 48
 33 C7 1A 0E CA 39 59 BF 39 27 F8 F5 67 92 59 5C
 0F 34 F6 F9 F5 43 B6 82 3C F0 F9 96 DD C8 2F BB
 A4 8B 17 10 ED B3 1C D1 92 6C DC 42 8D D7 0B 3D
 8A B4 4B DB D3 71 AA CA A0 EF 31 53 2A D5 D1 28
 65 4C 08 52 84 88 1E 7F C2 15 76 E2 E7 41 1A 35
 9C F3 3D 7B C0 61 AF 81 E6 96 8B 44 98 7F 6D 8A
 F0 9E C6 FE 6F E4 0A F0 69 74 78 86 BB 28 B0 4D
 23 53 CA 0A 68 96 24 35 88 87 81 1E 3C 15 F8 C5
 41 B3 DC FE FD 57 C7 01 5B 32 0F 87 4F F6 97 B1
 B0 1F 9D 63 35 E9 32 8C 75 0C F5 68 97 4F 50 D4
 C6 68 52 CE 2A D1 B8 1C D6 7F 46 61 65 F8 36 D1
 33 4D E6 88 77 51 96 B9 1F 33 9B FA 98 FF E2 E9
 5B 5D 58 E4 74 B3 57 25 59 E2 0B 2C 9D A4 58 33
 F6 BD 65 7C 05 8E 92 07 EA 5F 19 80 67 01 6C 88
 89 F7 C9 06 D6 AF 09 52 71 6B 10 C8 E6 50 14 0B
 01 87 2E 0B 42 44 2C 76 D1 FB 37 3E 0D 4F E6 76
 2C 26 64 91 71 D2 48 6A 36 A3 AA 9D C6 2D B3 1F
 7C FA B2 84 C6 C0 EB EB F1 95 8F 74 0D 16 09 95
 8D E4 CD BB 3C D9 D8 97 0F 07 D6 E3 91 A5 95 75
 61 37 3A CA 75 76 50 33 71 A4 E0 B9 68 E6 C4 5F
 CE 1E 17 CC 19 51 D6 EB 5D AF 15 BB 1D E9 46 56
 C0 EC 8B 74 76 0C 69 45 38 04 32 28 89 41 DD 8A
 CB BA BA 78 44 3B 08 93 DC 06 8B 0F EB 45 E7 88
 7F C2 9E D9 38 45 8C 86 E4 A6 82 FD 50 BA 7D 78
 F6 74 28 90 2B 2E B5 18 4D 49 29 32 E5 AC 07 33
 98 46 66 92 49 B9 65 12 F3 48 15 22 50 52 17 07
 FD 02 30 C7 FE A8 54 8C 19 D9 F7 14 2B C3 A5 F9
 C9 2C 5A AF 38 1D 13 98 08 F8 0C 4F F3 51 41 DB
 F1 2D 3B B4 1B CF E5 74 DA DF 25 94 AB 49 84 4B
 F6 28 32 81 35 77 F4 63 B0 F3 FA D4 33 CE 62 A0
 5E 1D FE F5 D1 9B B0 62 2D 9B 0C 39 B2 18 E1 18
 AB EB BC ED 4C AC CD EB B5 DF 93 FF 19 B2 50 61
 08 35 F4 34 1F DD 7B 86 E3 E4 D2 D1 1D 08 46 75
 CE 6F 87 BD 0C 69 FE 5C FA CB DA ED FA 52 BB 14
 5F 78 30 70 DE D5 50 42 4B DC 80 27 B2 2E 49 AD
 2F 94 50 82 35 2E 6B 9D 5E E9 28 E5 B1 24 11 F8
 8F 3D EB 91 20 CB E5 21 A2 2B D8 5F 67 F4 EE AA
 92 06 E6 3B 66 56 8F B0 2F 4B 7A 85 6B F2 1F A4
 C1 48 BA 09 08 E9 74 11 B6 72 1B 34 C8 DB E3 99
 D3 6A 68 82 D2 07 0A DF EA A6 50 4C 3E 72 49 3E
 53 D3 05 15 53 B7 0F 08 12 67 D4 F3 92 FB EF 40
 B5 90 2F 65 BF B3 09 23 64 9F 8A D6 18 7E EE 0B
 8F D6 40 85 D3 BC 11 15 61 89 C3 EC 09 2B CB AA
 C4 02 59 FF 61 3E 35 FC 0B 79 25 62 72 83 DC 05
 B0 76 0E F2 70 F7 5B 8D 59 B5 D3 76 C3 AD F4 58
 72 26 16 66 FD DD 98 B3 80 31 C5 72 60 FB 51 98
 FB 22 FB A9 B0 08 87 38 DD 82 BE 63 80 10 E2 E9
 84 36 DB B9 1C 4A B8 27 38 9A 1B 97 D5 0C 37 24
 E0 D5 D6 63 ED CB 2E 6E C1 4C 46 CE 64 50 7C FF
 9C 53 98 8C D7 CA 5C 8D 54 01 19 1D 59 AC E3 53
 91 8F B5 CB D9 E1 93 52 50 CF 60 CD 0D BF EA 35
 62 40 ED B2 00 56 98 D6 4C 82 89 2D 72 E1 7E B8
 44 4E 7B 58 36 23 C1 E5 11 63 54 61 14 38 40 2D
 D2 5A 4A A0 1F 57 B4 0F D7 F6 21 E4 EA A9 DC FC
 5F 8D EA 0B EA 15 C5 7F FC E0 30 C1 AA 50 25 A0
 EA D5 40 5D 00 7B A3 E0 F4 85 6B C2 01 58 97 15
 E8 BF 0B C1 98 3D BE 43 F1 59 2A DE 52 EC 61 96
 44 EA 32 7F 87 EC 07 74 45 A4 8F 10 C7 EA FD BB
 4E 85 A3 4E AB F8 9D BC 60 4D 22 54 77 A8 78 09
 86 33 33 65 35 41 C7 0F C1 9F D7 AD E0 D3 8F 32
 07 3B DF 09 6D 23 4E 84 4C D6 21 6C 48 FF D7 B6
 50 16 4A 0A 29 6C 23 93 9D 7B F9 36 93 8F 90 A6
 04 82 99 F0 BE D5 4B C1 99 AF 1F F2 C7 01 3B DE
 29 5F 57 88 1E 33 89 3D E3 8E 8C 9C 24 1C 8B 99
 FA 2A E9 E3 71 5F 6A 48 56 8F D9 77 83 83 66 C9
 A3 51 0B B6 19 E8 0F 1D E0 64 F4 E5 18 4E 73 B4
 20 F5 F0 F4 79 5C F7 B5 07 F0 10 21 CA 88 97 70
 72 04 25 56 BB 99 8D B5 8E 80 33 8E EC 45 80 87
 0F 8B E5 2E 24 AF 7B 16 22 6C B8 8E 2E 95 EF AF
 2D 4B D8 AD 71 7B C0 A7 81 A9 C6 F6 AB 25 E2 A3
 C4 79 44 94 CD 2D E6 04 DD 79 2C A3 00 9A DD 03
 2F 1D 8A FD 9E 7C 9B E7 A2 44 EF 69 98 73 56 60
 17 1D 93 05 9A 1F FE 73 3C 28 8F A6 F8 E1 9F C1
 9B 37 17 2C 54 FC B5 AC 8B B0 76 18 42 4E B9 FE
 3A D5 9E A9 70 90 3F D3 75 90 FC 10 96 E3 1A FD
 66 AE 15 E7 61 30 FB 6B 91 77 45 CB 1E 76 9A 3D
 DB F3 50 1B 95 A5 C9 1C 91 02 54 16 05 2B 78 11
 15 CF 9D E1 D3 EE 4C 0B 7E 59 BA 93 44 AC D6 0C
 2B 3E 27 A9 F2 A8 4F 4A B2 10 72 35 E5 7E 5C F9
 41 6E 61 08 8C 88 43 45 72 61 74 34 05 7B 4C CC
 00 30 A0 0D F8 06 65 C9 59 49 DD C7 32 65 1D A8
 AD FC 95 A5 A8 06 F2 56 B4 DC 89 71 0E A1 2C 0A
 74 1C 6E 44 35 31 A3 87 B9 4E 83 02 D9 57 C7 A5
 3B BB FF DA 92 AC 3B 60 A1 10 7D B3 D0 1B 00 82
 BB 89 BA A6 21 6D 4F DB F6 35 39 8D FC 3A 6B A7
 B7 D0 02 2C 9F 40 74 EB E3 2B A5 76 98 C7 7E FF
 AE F3 0B 94 ED 25 59 FB 07 74 3D 18 DC C3 42 1E
 C1 76 E6 26 2C 3C 25 E9 67 2B 9F 34 7C 26 B6 15
 33 9E 6D 66 83 6B CE F0 10 24 D3 AE E1 35 B1 0C
 98 C7 82 0F D6 76 50 37 3A F8 BD FF D2 CB 3B DE
 F6 B5 16 DB E2 2C 92 4D B9 5A F6 CC 16 2D EA 8E
 E5 85 FB 2D E6 99 AF 96 BA 8A 33 1E CC 91 EB 29
 BF 36 C9 FC 38 99 03 B2 5E 41 FA DC A3 DF F7 C5
 68 1A D9 85 A7 6C B1 E6 92 AC 4B 4E A4 87 26 70
 2B 50 99 C2 04 01 9E 42 D7 BF F3 4F 44 27 64 AA
 91 C1 24 73 43 5E 49 66 44 54 CB 1C BC EF 95 A0
 C1 4F D5 BA 86 73 E6 23 DB E3 92 BE F5 E7 9A 85
 C5 38 61 CF 82 6E B3 E7 A4 5E C9 82 44 13 47 87
 6C C5 35 22 73 64 80 A2 CD 1B AE 73 EC A1 A8 DD
 0A BD 6D 5A 92 CA B0 66 FA DA 7A 82 72 4E EF 40
 AC AD 4F 4B E3 F7 06 24 CF B9 24 3D 38 FE A4 C9
 77 AA B3 DF 08 73 F9 2F 91 D0 01 38 A8 00 98 21
 54 83 22 3D 41 10 64 61 53 37 1D 34 D3 A4 CC 32
 76 9A 1E 89 4E 1F CF C0 A6 04 C4 0F 41 A5 33 7A
 9E A8 6F AC CE 0D CA 42 25 EE 55 81 EC 47 22 A0
 AA E9 8E 9E 9B 99 5C 66 D7 A5 C2 FA DD 45 DF F8
 24 78 A2 B3 84 94 3A 22 FB FB 8B C5 8C B9 C2 4D
 07 29 17 02 BB 51 CA 9C BF 6A 2A 22 B1 A1 17 8D
 06 AE C2 19 83 10 63 8C DF 8F E5 3A C3 95 96 D5
 F6 FD 44 69 34 89 BA 6B DE FA 6C 8E CB 84 CA 42
 33 E3 87 C9 82 3B F6 02 D7 42 D6 04 EB 6A CB 7F
 EA 90 43 75 FC 90 90 29 9F F5 F7 C7 4C 0A 93 DC
 FA 2E 93 64 B5 4B C6 74 42 FD 54 01 99 E6 8B 6A
 47 74 4B E6 68 C4 00 55 C0 E5 42 70 35 A9 5A 86
 79 73 75 AF 56 38 DF 01 15 01 F0 06 CE 5E BC 6E
 02 BF BD 7C AB 27 A5 1F EC 20 8C FA 02 ED F5 DF
 B9 44 52 9F D9 DA 78 47 15 CF 7B 61 66 08 D0 BF
 B0 61 40 0C E7 32 CE 0A 6C 27 F0 3A 4E 81 71 71
 F0 E2 A3 F3 98 52 51 7F 09 D1 BF 8B 7B E7 34 F4
 F6 79 E6 57 71 F0 39 76 64 08 CE 08 B4 3C C4 B9
 1E 41 C8 2D C0 4B 99 DE B3 A6 DC A7 70 2D E4 5C
 44 32 F1 7F DF 3E 69 C4 7A A6 5D 58 C2 29 08 F0
 31 D1 50 FD FA E6 38 D9 47 55 94 3B D4 EA CC 8D
 B4 21 55 14 5C 4B 36 63 95 57 50 AE FC 16 23 E8
 DE 4B EF EF B3 B9 0B 04 56 36 19 2D 06 3A 70 82
 30 7F 6D C2 29 64 86 76 DC 66 5D FF 2C 63 B0 C0
 AE 79 59 CB 91 CC 16 5D 90 ED 95 67 FC A5 C9 D6
 50 4A E7 C5 60 B8 62 89 D8 8A 7F 96 4F 78 65 E9
 2F C0 D1 8E 46 0B E2 09 0D 25 24 C1 1C 0C 1D CB
 FD 19 FE 20 7D 4C FA C1 11 3A E5 33 23 71 B9 75
 39 5E EB C8 5B E9 7C 22 E4 40 EE 98 DF D4 9F 74
 1B 77 A5 64 86 B1 64 EA 78 2C 3B A5 D1 D3 2D 4C
 28 9F EB BE C1 29 9E 32 FF 48 D8 D9 B5 65 40 01
 85 79 0B 17 36 28 33 79 3D FA 30 16 07 51 D4 DC
 44 A3 01 6C B7 85 3F C0 E0 92 F7 B8 46 D6 8F CC
 50 60 54 32 0A 4A 63 D4 5E 21 9B 5C 32 C1 5D 67
 B5 D2 64 88 46 80 4F 25 71 76 99 E6 F8 6A E1 12
 3B 8B 25 DD 20 42 B2 8F FB 98 90 9B 10 81 A3 7A
 0E AE BD 56 FE 6F 94 D1 8A 98 41 04 C9 53 83 D3
 CA DD B7 8F BA 82 78 E6 B1 DD 59 88 55 48 E2 4B
 0E 80 2C F3 47 53 C2 26 D4 F0 9C EF 7B 2F B5 56
 0E E3 C1 D3 9E FB B3 67 A2 C3 F1 A9 17 9C 43 A6
 55 B6 0D 8F D7 B7 98 8C 75 50 94 D6 B4 89 CE EC
 13 5A 27 67 14 6B 5B 82 7E 52 D7 AB 8C 6B 5E F6
 11 98 EC 84 04 D4 73 56 DB CA 22 74 84 02 E3 4F
 B2 C6 F0 3B A4 ED 70 4E 42 E9 FE 08 2A 23 64 5E
 AE C5 80 A6 D0 AC 40 DE 75 04 B2 FC 4A 71 2F C5
 95 51 0A 35 5D 27 FA 7A D7 74 3E 5B DB 48 FB B7
 EC 91 CD E8 08 12 51 EC AD 6E 36 5B 4F 2A 9F 57
 16 F9 B0 A0 5C C2 55 25 6D 83 BB 27 9B FA CB B3
 89 A0 B5 39 12 4A E3 EA 4E 3F D3 BA 94 1C D6 4E
 0D 92 0B 48 A9 F8 4B E1 76 73 9C AF 6D 10 77 57
 26 5C A7 70 2A FD 35 B6 BA 92 63 BA 53 FC 7E A4
 36 A7 84 61 C6 43 7F C9 01 89 41 4B 04 40 70 24
 23 31 C4 88 49 77 33 BB E7 A8 FB 82 08 27 EF E9
 F2 75 4E 47 68 4E A1 EF 53 2E E2 99 23 BD 5B 05
 39 AE 8C F3 4C 72 9C C1 DF AC F8 8E 76 98 6E A1
 9F E1 FC 56 1D 0A 9D 6C 51 2A 1F 59 3C 6A BA E0
 BA FD 95 15 8E F0 C3 7B A9 49 68 C7 76 EB 20 01
 85 65 56 E7 2F C5 FF 24 E3 AB D3 E5 E9 17 F4 FC
 CD F3 EA B2 FB 28 F3 B8 70 FF B1 48 DF 70 6A 30
 B6 D5 2C 37 26 7F CF 0A 02 52 E9 19 C1 0E 1E A6
 00 78 06 88 61 DE A1 C7 69 4F 9F AC 5E 6C B4 CF
 C9 6E 3B 2A AB B5 BF DF 88 80 4F 27 C6 4B D1 A7
 5D 9F B4 48 0C 9C 5B 6B 41 32 E4 12 2B DC 00 13
 3D 29 2D E4 E8 EF FB 31 D9 94 C5 B2 5A 61 2D 2F
 B6 53 CE 31 00 B5 6E 27 AE BB 72 60 46 71 70 A1
 0B 9A 2C 10 AC 63 2C 5A 49 82 12 56 89 CF FA 7D
 7E FA D6 D6 9E B4 DB 6A 2E A1 C9 00 6E 3F 10 3A
 57 14 8C C3 E8 AE F3 AB 96 0D 26 32 E7 D1 AC 40
 CE 1B 95 DF 55 09 35 85 63 51 D2 29 3A 50 D1 E9
 EC EE 50 ED 28 CB F1 1B 68 F2 97 B6 86 D5 05 24
 3C 64 8A 32 F8 83 FE E0 57 44 75 F9 79 3C 74 56
 12 DB 05 4C FB 3E 18 90 40 B5 E0 F4 1C F3 F6 A7
 0A 17 77 2B 54 F2 8C 55 EB AF BF AD 1F 07 DC 9B
 A9 C7 88 03 A2 67 F1 0C 00 52 52 D0 73 30 1E 05
 2B 6C 2D 7A 29 B5 66 F9 24 6D 66 45 CB 2C B5 AA
 F9 61 E7 06 F5 61 AB CF AD C3 28 9B 45 56 F8 BC
 C4 68 9D FE DD C4 0D 33 1E 20 DA C5 4E FE 5D 8A
* End 2558166570 417690605