* LTspice Encrypted File
* 
* This encrypted file has been supplied by a 3rd
* party vendor that does not wish to publicize
* the technology used to implement this library.
* 
* Permission is granted to use this file for
* simulations but not to reverse engineer its
* contents.
* 
* Begin:
 55 C8 0C 73 A5 20 16 C7 44 76 A5 33 3A 68 0B CA
 04 C1 66 90 B3 F4 03 FC 3F CD 63 AA 36 A4 FB FA
 FA 49 5A A4 A4 92 A0 BF 17 6D 85 3D E1 29 65 52
 E0 2E 58 F4 14 6B 13 5E 84 55 7F EB C9 3D 5D DD
 68 23 48 01 6C 1A 58 2C 9A 5C C7 EB 78 B6 D1 FF
 0C BB 83 1A 2F 0E 50 C9 19 B3 85 38 74 6F 0F 13
 4A 55 35 60 DE C3 6C 67 DE 33 F3 E4 2D 22 87 A6
 BC 5B DE F6 21 E1 63 D5 53 B1 DA 5B 93 1E DD F9
 62 98 16 9C 50 3A 20 3C FA 60 CF D4 DD B0 83 19
 0F 6B D9 E3 65 42 57 5E E6 5E 07 4B 02 BD 40 51
 4D 7A 22 11 C7 FA 1A F9 37 98 9F 71 8A 0F 10 C4
 DD E2 0D 1C 2D E9 93 8F 8A F5 6B 7A F8 32 C4 EC
 93 CA 61 97 51 55 EF 7B B4 08 F8 2B C6 F5 03 B2
 24 F6 A1 1D 1A 5E D2 D3 DF 2D 95 47 B2 D8 93 15
 61 E8 FA CB 01 46 66 0D F4 39 97 26 DE 88 C1 FD
 EB E7 AB 23 71 6B D2 C9 AD 4E C4 9F 16 AB 47 8E
 BE FC 62 22 55 9C 86 39 6D 3B 80 B0 02 04 1A 0C
 AE 0C E3 42 68 1F 5A AE 90 D1 0A CD CB BD 8C D9
 C6 EE 4A 39 98 26 DC 9E BD 3D 25 5C B6 A8 EA 41
 01 FD CF 0D 2A 1A 34 DF D0 56 0E A6 DF DC 9D E3
 08 54 0D 6C 54 B9 A1 FF FF 3D 1E D2 19 2F 6A 59
 97 5B 06 98 22 21 12 66 BF D8 DC 62 8F 76 58 8C
 0D 34 38 BC 79 9E 1E B3 84 B8 19 6C 07 E4 FE A9
 A3 72 EC C1 B5 2D F1 79 07 7B D9 31 E9 E8 C0 0A
 55 CA EE 86 47 3B 89 8F 90 01 69 52 17 44 6C 90
 AB 4B A9 16 D1 CB E2 3C 14 F6 3D 1A 01 A6 B9 53
 BF B9 31 67 67 8C FA E5 C5 0A 3A D8 88 3D 72 EB
 3E DE C4 93 6B 82 C8 F7 1A E6 DD A3 50 57 5E D9
 88 48 20 6D 44 D2 9D 98 41 B7 D1 39 75 52 E9 71
 B2 19 2F 64 40 56 68 FB 39 A2 45 AF 90 B2 CA 00
 53 C6 37 16 B5 E5 17 CF B4 37 90 03 E7 C8 86 30
 48 02 55 6D 5E 20 D8 78 82 D6 2A 55 62 48 38 01
 02 C8 74 6B 63 2B 7E 48 29 52 9B E4 0D 72 F3 86
 87 4E 68 06 8E BC AD AA 61 DC 41 B0 95 A6 23 58
 AC 77 50 F0 CF 31 DC D3 6D CC F3 42 60 C4 20 41
 12 77 1B 16 7C 57 01 D8 6E 16 68 94 1C F6 83 8C
 D0 6E 94 FF 30 52 3D 34 99 CD FA D0 85 87 7B 1B
 D8 24 19 4C DA CA 31 96 5C 6D E4 4A 6A D0 FF 63
 F1 CB 56 77 EF 40 A2 97 BF AC BB C8 20 37 E2 74
 76 67 96 74 11 DC 2E A6 6D 2C CE A4 6D 8F 68 22
 C5 B2 18 13 9D 5D F6 D3 77 5B 70 60 0B 53 C2 EA
 B4 C0 37 4E 8C 89 6A 4B CA DF 94 BC CF 62 28 F9
 4A C8 DB BC B0 E8 40 38 75 FD B6 32 F1 F5 84 01
 29 DF 85 31 C3 BA BA B9 57 97 1B D1 82 75 B4 6C
 A6 F8 95 26 3C 23 B0 83 E1 50 55 7B 20 E5 38 AE
 1C 5A 5E 69 4D 93 09 89 48 57 3C C9 FD 3B 18 9F
 29 78 B6 06 EB C9 74 2B 5F DE 7F 21 39 0C 34 AF
 E2 A0 2F 93 FE B8 DC 1A 9D E1 8E C7 B5 DB 03 2B
 60 B8 22 EF 39 96 ED 09 E0 CF B8 C6 8D 6D 46 D9
 9D A1 F0 4C DC E3 45 53 69 23 69 5C B4 FE 08 72
 41 6E C2 52 2F 75 E6 61 BD 15 DA 34 E8 77 3F 36
 92 80 C6 13 BA F5 17 37 9F 2A DD 8D 9D A2 AF 3B
 28 45 93 50 20 F9 20 98 69 D5 D3 32 F1 EF E8 E0
 37 C7 2E AD 85 D9 23 D7 E3 8A 60 A7 65 89 DB 3A
 DE 03 49 15 E3 18 46 08 1F F6 CC 41 3F DD B1 C4
 11 F2 51 05 DB 5F B4 A2 33 E5 60 BF 44 F6 59 35
 E2 8B 12 79 FA B8 A9 21 6A CF 89 74 29 97 BA 87
 7D 21 62 84 BC 7E 43 0E 4D 1B 3D 9F 2E 9A 7C 7B
 2C BA 0F 32 90 5A C2 36 D1 83 5E AC 2D B5 AB 2F
 4A 86 56 0E 4F E9 7F A8 F4 5D 2F F0 A1 50 6B A9
 67 FA 2A 75 53 E4 1C B5 C4 9F 7E 48 D0 68 79 75
 A1 65 9E 7A 6F 2D 93 E8 D9 27 CC 76 6E 7D C2 24
 59 E7 8A 72 D0 11 50 D7 62 FB 34 64 F5 44 4F 1E
 80 AD 96 84 25 2D 62 E6 F0 EE 15 54 2D 0E D9 CB
 7A 1B CD 29 2B 47 BC 27 6D 55 CA D3 70 A9 16 53
 C3 DB 55 C7 8E 51 6B 97 BC B6 5F D6 ED 93 DC 62
 E3 85 A6 16 22 02 28 54 97 8D 59 0F 26 6E DE 3E
 21 23 22 E7 7B B2 E4 DE AC 49 3D 76 9F E1 49 D4
 84 BB B9 D7 65 18 72 A4 23 87 FD CE FC 5D 89 E9
 5A B6 C6 1B 43 14 C8 89 DC D7 E6 BD 38 D4 DB 52
 80 88 9E 9D AF CD 42 BC B1 F3 DD 11 D4 21 A6 5A
 E5 A5 56 6E 95 B4 03 8B FB DA B2 E7 D0 FB FC B5
 F5 BE EB 92 DA D5 45 C9 6F 49 19 ED E5 06 C5 B6
 C0 CD CB 85 AF 66 0C BC 90 29 77 32 4D 73 6C 61
 E2 DD 37 00 C2 C1 FA 6D C0 DE 9D B0 56 15 C9 FF
 48 0F F7 4F F5 FE 18 BC E9 A9 B9 D9 40 98 42 1A
 58 1E 4B 2B A8 C3 C4 20 CD D4 D4 27 D6 1A 64 AB
 68 17 9C 30 42 31 F2 D6 44 19 09 0F 5E 1C 84 0A
 CF 45 8B 90 B1 52 2D AB 37 06 29 D6 B1 C2 9A 05
 E3 AA F7 45 BA B7 93 CB F5 35 8C 9C 36 D5 5B 95
 32 18 BD 56 F1 D7 25 8C 84 11 10 63 C8 6A F8 E1
 B7 58 BF 10 94 77 CA D1 A1 6B 08 4E 7C 02 3A 06
 3D 55 37 9F 00 A5 43 60 DB B1 DD 16 CC 1E 17 7D
 BB 8E 3A 25 16 AE F7 30 06 0A 60 14 51 A3 C3 D1
 06 32 FC C3 04 C8 53 26 CB 9E 1A 88 2C 94 CF 06
 29 EF 33 18 39 91 94 00 6D 5E 5C BA 77 AE BB 34
 13 7C C6 1E E5 FD B3 6B FB 15 29 F3 61 E8 F1 93
 F8 1E 7C 97 1E 1E 4C 5E 42 BD B8 33 54 F9 1F 43
 9B 4C E2 9A BA F2 49 80 E6 E7 D5 46 96 0D 3F A4
 0A 06 86 C5 5E CD 80 F8 02 3A 9F 70 57 45 18 2F
 3B A9 7D 14 C1 D0 8C C1 3F F3 2D F5 0C 78 35 A9
 91 F0 47 5A 3A 92 C6 71 4C 84 8A 61 4B A9 34 79
 DD 2E A6 23 6B B6 07 13 93 65 AC 5F CE FB 56 1D
 CB 3A EA C8 28 EB 43 99 B9 77 6F 38 8C 61 C1 DD
 80 27 0C 3E 4B A3 A4 FC 12 0C 8E BA 95 61 39 69
 27 92 C4 8B 1C D4 F9 C0 82 6A 92 5B 5B D4 2C 6A
 F9 48 36 13 C8 63 D7 7F 2F FD F6 CA E2 CF 87 21
 2B 44 32 89 E1 A5 3F 0D 45 42 68 19 B2 63 77 67
 B7 A4 EE F3 AB F0 5C 37 95 FF CC 35 20 82 28 F7
 D7 65 59 83 B1 E4 E7 FF 5A 4A F2 03 26 6C 1F 77
 16 0B 82 6A 8E 76 D3 4B FE 2F F3 9A AE 33 17 AF
 DD CE 4B D6 FC 5D 0A 50 D1 35 B3 A1 26 FF 38 BC
 7A 69 04 76 23 A2 CB 22 C0 E2 01 CA 31 80 D9 31
 3D 02 DE B7 4F 57 DA D3 0D 69 54 6C 6F 75 B0 84
 9B 1B 97 20 E6 26 56 28 1C F9 6F 74 C9 18 C8 CE
 6C E1 23 C8 51 A8 6E C0 09 B1 99 BC 60 7D 80 EB
 FE 23 E8 56 97 76 8F AA 63 55 3D 52 94 91 23 E2
 79 CB 62 42 42 F7 E9 5E 43 08 6E 12 3B A9 EE 9B
 7A 77 25 E9 A7 37 20 F6 E5 05 41 81 52 71 EB E1
 2D 69 C5 8E AF 84 0E 6E 80 51 1D 8D BE C3 97 A8
 89 D3 AC 05 A4 36 E5 5A 4C 0D 1B 26 4E E4 E7 5E
 07 99 4F AC C3 8F D0 B1 B7 14 AE B6 95 FE 7E BA
 44 8A 6F EE 5E E5 C3 5B 2F DA 24 A7 1E 99 AD 62
 05 83 24 6F 06 9F 3D D2 B1 45 C4 1C 1B D3 2C 9A
 E5 68 42 70 7E 0F 9F 9F 54 6F 75 91 EA 16 68 3D
 97 27 9A 4A DE 5F 55 6C 31 EB BE A4 38 5C 21 F0
 D7 4C B4 78 F3 5C 92 5D DB B8 7B 4A FE 72 0B B3
 9B 79 AC 25 91 10 94 8F 95 81 AF 16 0C DB 79 6F
 0D B2 E2 C5 8A EA 10 FE CF 78 8E 05 B1 F6 A0 E6
 62 E1 7F C6 59 7C D1 FD 5A 86 C6 96 04 C3 BB 68
 1B F2 54 3F 62 09 34 7D 37 D5 97 FA E5 63 8D 41
 E9 6C 87 67 67 F7 60 6D FE D4 1B D4 65 18 70 1E
 6F 70 0B E6 2C 59 B9 CE F5 D3 51 98 1A 2E 1D 30
 2C 11 14 A3 85 4D 87 1C 5A 9D 67 B6 96 A5 FE 27
 49 68 D0 F3 3F E6 27 46 81 DF FD B4 31 84 3A 60
 9C B6 1E 88 23 A6 72 52 33 FA 58 8A 7A FF 10 44
 A3 47 D7 01 75 A0 53 C2 99 48 14 AA E8 59 3B DA
 02 F6 9B 4F 79 38 7E 08 81 F0 79 1A 37 59 FC 8A
 6A 94 A7 E5 68 79 B2 EB 85 DF 45 B3 26 72 47 89
 B5 1C EC A4 AD 1A 5B 08 F7 F1 59 FA 79 4A 8D E8
 36 70 C7 32 13 0A 75 08 7F DA 65 57 C1 EE CD 44
 B8 3B 6A 83 9C 25 4E FB 08 0D F2 F9 80 BB A8 BC
 B0 85 67 38 E0 98 C9 53 E5 75 E1 52 57 1E A6 DE
 80 C1 A2 BC 1E 4A A9 CE 33 3A A0 25 64 09 A9 31
 51 98 1B 34 4F 35 E3 6D DF B1 2C 35 85 16 AE B9
 7A 6A D4 1A 8A 56 48 3E E9 63 F0 86 77 96 95 85
 88 6A C4 B0 56 8E EA AB FF FD 97 27 4B FE CA C4
 94 91 67 E6 11 9A AA D8 78 52 6D 6C 58 88 36 FB
 85 17 C6 02 DA E8 D4 A1 D0 93 68 00 53 99 E8 AC
 38 83 D4 3C EE E3 60 37 B0 C3 55 32 6B DE 69 FA
 5C 82 37 8F 87 36 74 88 F1 EC E1 A1 68 7D 3A 62
 D8 41 87 77 80 07 98 E3 4C 99 CB 5C B9 EA 95 FC
 D6 B5 2A A1 06 4F 7F B2 2C F0 09 92 91 0A 73 32
 69 07 58 26 31 F2 7E 12 14 9A A1 FA 55 08 4F 8E
 29 D8 2D 36 9C 11 77 0D F3 C0 65 AE 59 EE E4 FE
 82 CD 79 10 40 43 0C 17 B0 76 F1 68 15 D3 F8 81
 75 17 4D F8 41 44 F9 88 28 81 E6 E8 52 87 5F B5
 C0 69 CF 39 92 85 A3 01 C7 62 B9 3A 0F 0F 28 EB
 93 E8 6B 60 40 8C 37 C3 30 C7 DC 36 64 FE 32 39
 0B E7 0C 03 9D 4B 9B 08 30 D1 B1 DC D4 64 9E 67
 52 96 18 AC 71 CA D7 09 2D DB 5A 39 6F F6 0D 9A
 DA FC 72 8D FB 43 4A 2B 32 EA FB 9B 5C AE 25 DA
 DD A9 6E 97 4F 27 B8 BD 37 38 0F 59 FD B6 2F CD
 D1 44 60 A0 4F D7 73 E8 E5 30 AB D1 47 95 60 BD
 8E C1 BB 4A 2A 01 55 85 F9 4D D7 FD FE CE 2A 21
 A2 4D 82 18 2B 6B B3 59 D4 E9 71 0A 23 2D FB 37
 52 FA 1D 4B 0A A7 78 AF F3 A8 A1 88 4E 80 F3 7C
 B4 D8 BB 09 F6 AC 54 1F CE 2C 94 AF E3 AF AF B8
 90 1D A1 33 6C D9 BC 49 23 5C 8E 9F E1 61 E5 E8
 4E 40 E7 15 21 E0 8E CB 23 DD 60 3D B1 9A 0C 13
 92 63 57 E9 B6 66 B4 A6 73 70 61 00 79 A6 62 25
 45 24 76 BF 8D 3F 3E 9B E3 76 00 DC 71 D6 6B 1C
 7A 5D 09 61 29 DA 89 9E 32 88 CF 41 27 8C BE C1
 D0 BF 8D C7 C5 D3 13 C1 D1 47 A2 88 3C 09 DE 17
 35 65 8A 20 55 B7 CE 78 06 C2 D4 11 1F 7A 62 94
 AA F6 58 C3 9A 5C 3B AC 82 6B C7 EA DB 31 12 AD
 95 AD 06 03 9F 25 A7 20 C9 E1 CA CF 76 DD C4 57
 FE 6D 57 5B DB FC 91 7C 5F 18 2D F9 DB 7D EA 9E
 1D 18 A8 AE 1C A9 AD DD AD 2A F9 B2 3F 53 B4 5C
 DA ED C0 2E 5F 26 5A 12 9C A1 31 3B 5C BA C6 C6
 5B 12 EF 6B B9 48 F8 47 09 8A 71 5B 6D A5 3E 97
 91 C7 9D 63 9C CD E1 2C 75 6F 6C 1F 9E 5C 27 EE
 C7 23 98 3E 22 A1 6A DB C1 D9 EB CA 72 F8 64 63
 3F E5 C1 3D 2C 23 54 64 15 CC 19 D5 89 6D B1 64
 12 92 E6 CC 76 EC E3 BE 7D A8 8E 39 44 D0 4F 0F
 E1 12 3B A3 0A 12 70 98 F5 EC 3B 3E 7A EB FE B3
 C6 3A 82 00 03 40 50 76 75 C9 BE E6 32 F7 9B B5
 28 47 B2 47 BF 3B B5 FA 55 CB EE 8F F3 71 8F D0
 01 87 75 37 D5 C7 FC 18 32 F0 55 29 53 88 3F 22
 01 9F A3 77 27 E6 E1 3A DD 9C 54 15 01 A1 75 DC
 16 06 1F B2 0D 5E E0 DA E3 70 C0 2C 50 D6 C9 CA
 3A FD E0 22 9B 91 10 CC 41 B5 33 3C 64 80 37 C2
 52 5E 9F EB DE 64 0B 07 EF BB 78 51 89 5D 81 51
 BC BF DD E7 29 EA 37 BA 78 13 FB DE 8C 46 4D 74
 7A D9 2A 6F E1 FF CA D0 6D 95 21 78 21 2E 27 BA
 39 68 3E AA 2A BE 49 B0 C4 CF 0D EA 33 F6 59 F8
 B2 67 ED B6 79 09 0A D9 A9 78 1C 0E 9B D4 49 00
 8E DA 7F A7 73 68 3A 3A 89 2D 62 54 49 5A 79 86
 42 3E 51 C3 2D 80 A2 0B 8F 9F EA 05 82 22 44 A2
 9E D5 C3 51 61 29 78 64 46 4E 8D 59 49 FB 76 25
 2F 2F F7 4B 63 0F 1A 11 9C 16 49 65 D9 3D 37 6B
 E1 C8 33 88 0E 5A 6A DD 6E D0 D4 87 97 B7 36 B3
 CD C6 C6 34 B4 2E 5C 17 54 81 94 51 BE 83 C9 56
 71 35 32 E3 8E 10 50 7B 21 35 E0 05 23 D7 E8 73
 8E 9E 33 EB D5 41 40 12 83 7E AA C8 E2 9C 68 D4
 90 58 75 6A A8 E9 6E 01 62 FB D8 2A B9 B4 61 81
 7D 3A A7 70 12 E0 BA 9A 39 87 02 91 43 BA 94 32
 69 D0 9B EF 49 FE 17 E0 18 19 57 4B 6D B9 27 ED
 5E 16 61 69 20 F5 26 61 95 13 E4 26 2F 94 96 B2
 E4 6D DB DA 6C 1F 66 52 E2 27 F4 D6 9B 09 C7 31
 BA CA 3E 7C 1F 3D 48 10 74 C0 D4 4F F7 8F 78 C7
 A0 FB B0 FF C7 80 F2 E2 85 C5 27 BC BC 9D 24 A7
 35 72 17 F6 02 BF 76 D8 88 77 28 E5 31 B4 17 C6
 04 F1 E6 32 FB EF 60 AE 55 19 14 4D B3 41 24 58
 CE DB 0D 50 97 B6 62 CA 53 0E B6 C8 B5 59 0D 29
 76 38 46 5C 72 54 7B 50 74 92 B7 62 2F 12 B8 37
 D3 6A C2 15 2F CC 67 CE 92 18 3D 5F DC 49 E9 4C
 CC 21 9D 9D E0 B5 5E AC 34 23 2E C7 87 47 AD 54
 E7 C1 EE A1 FE A0 63 3D E7 2E 16 9A EB 5F 22 8E
 B9 40 BF 72 4F 02 ED 69 04 1D 4F 1F 26 87 A7 E2
 41 E1 70 AC 19 01 0D EE A5 97 04 63 48 04 9D 49
 43 22 13 8C 85 97 8B 06 A4 C8 86 51 E7 4C 3D E4
 8F A1 0A 32 8B 42 2B EB 3D 16 92 FA 5F B4 E0 64
 88 0B 7C 61 51 4C E2 ED 20 F0 45 AE 7E D9 0D AD
 92 C8 D3 78 54 F1 6A 8B 9F 73 F8 75 BD 22 FB 66
 53 CC C4 14 5C E2 89 9A 95 DD E2 CB 85 7E DD 26
 F8 23 99 64 0D 42 DC 77 B4 89 40 D3 9C 4B C8 93
 07 BC 1B 39 65 5E D9 B6 6C EC F2 B8 D5 EF 08 48
 9D 66 7A 63 F5 3B 4C FE CC 4A 88 0C C0 B8 D5 C1
 2D 6E 15 0A 11 20 3C E4 8A 3F 38 CB 30 82 1B 11
 4B 62 69 94 AB B4 45 10 C6 40 FE 7E 7C 5A D5 B6
 05 45 CC 24 09 4B CD 6C D1 E7 4B 2A 8E 59 9F 03
 9C 19 07 3F AF 56 93 FE BA 47 3F 51 42 FE A0 F4
 B6 79 03 F2 46 24 1B E8 AF 07 84 2B 3E 0F A3 B4
 93 91 04 F1 B5 1F 8C 58 AD D8 84 F0 9C CD ED 5B
 2A 1F 55 E0 5F 31 39 82 3C 82 B1 91 61 B4 79 10
 BA 4A 46 DC 51 F8 7C D3 39 29 53 E9 6A E2 18 51
 56 84 28 B6 97 0E E8 7F 42 53 5B D3 99 D5 DA 23
 79 ED E4 53 18 A5 35 1D 21 C7 C3 E7 A6 47 4B 85
 94 BE D7 65 10 46 DC 6F 75 8A 54 65 44 83 86 33
 7B 24 17 E6 B0 0D 16 07 71 C8 B5 F7 97 D3 5A 14
 3C E8 EE 2C 1E FC CA E0 D1 9A 2B 6C 21 32 A6 AC
 12 21 72 8A 8B 1D 97 45 DA 92 8C 31 43 A5 2A AE
 9D 61 97 3A E5 59 EE 01 CC 98 BD 74 A1 1A 02 B1
 14 BD 95 85 97 B6 34 D5 73 46 A6 65 8D 16 34 94
 DA AC E9 57 33 EB C4 6A FE A9 9B 5C A0 F5 6F 68
 76 F1 D9 4C 1E C5 92 41 57 FB 45 A9 53 D2 ED 3F
 32 CE E6 DC 30 8E 0E 6A 74 D5 7F 87 AA 38 5F 4A
 FF 98 3B 0E 86 AB 64 81 D8 40 C3 88 9A 03 FE 78
 D2 AE F2 D0 8A 87 4B BD 0C 3A E3 60 13 6E 63 19
 EF 78 11 B8 28 67 E5 C6 47 AB 11 B1 37 A3 CF 43
 15 24 0A E1 52 FB 15 3F F6 8E 66 B0 0B 6D 55 76
 9B F6 A6 F5 95 4D 6B 17 90 4E 36 87 5E 92 1A 0D
 B5 42 23 BC 6D 36 DD EA 4E 64 7F 99 36 74 72 40
 98 6A 52 90 8B 58 30 F1 9A 2B 99 9B 2C FA 01 EA
 5E BE BB CF 44 BD A4 F5 36 38 F1 CC 78 FA 38 6A
 66 65 13 00 8F 96 A4 E8 79 3B CB 25 CC 1A 58 7D
 40 0B CE 23 6C AE D4 9A 31 41 CB 3F 62 AD 31 D8
 CA 0F 9F 1B 52 6B 94 66 30 C4 63 6A BF 48 8E 40
 00 BB 82 92 B6 BD BD 5E 42 EF 2E 09 6A 99 5D 2C
 18 CD 78 60 31 AE C3 EC A3 0F 32 71 F0 DD 8B 2B
 BC 37 65 A5 3A EA C3 4A 13 38 DC D2 FB BB CC 30
 2D 6D 00 2C 14 3F EA AD 6F 26 3E 92 C4 69 0F AC
 3D BF 48 B3 9B D5 67 A9 FF 79 BC 43 0A 74 21 49
 D5 04 B7 89 CA 2E 10 B7 FB 98 3A 5D 39 07 E9 27
 A1 E3 72 2A 80 B3 81 08 B3 A8 7D 1E 70 8F 5C 8C
 E3 73 46 77 7F 14 A1 94 45 D2 CF FB 20 AF 69 93
 31 BF 6F 68 6E E1 07 36 7B 7F C6 85 F5 63 A7 98
 1C 33 80 15 71 3F 44 7F F1 65 64 F0 84 9E F1 11
 3D F2 0D 11 97 1D A0 E6 B9 E5 ED 2B A8 34 55 16
 8C 9D 42 2D 0D A7 00 B0 B9 5A 5E 9F 14 A0 FB 4E
 30 D8 CC DF BD DF F0 8A 95 3A 05 68 D5 90 D9 48
 2D 2D 3A DE 12 A2 63 19 BE A4 B0 94 13 5C E2 37
 3C 61 24 AF 80 01 35 1F 53 43 3A B8 B7 78 1C BE
 1B 26 F9 DF 35 3C B3 84 29 C0 1E 12 BC 74 F8 A1
 79 FB 12 1D 70 1D CF 79 B8 F3 0E DF 0F 9B AC D7
 6D 07 F2 E8 2D 39 10 73 29 9D E3 BB 20 E9 A8 98
 DA 02 11 92 A5 B1 17 C1 CD 58 9B 63 B0 E4 2D F8
 0C BB DE 3B D7 A6 2F 1A D4 D9 42 35 7B 88 DE 7B
 2E 8C DE B3 05 5F AA 97 F8 D5 09 2B C8 67 9E FB
 03 EF DA 38 03 C4 3D AA 8D C8 DF 71 29 47 E6 D4
 31 C5 38 DB 58 21 11 27 27 68 6B F9 8B 12 41 2A
 EE 4C E9 A5 FA 28 EF D1 A0 68 52 00 39 AB 2F AF
 35 90 1C FC 86 18 0D 66 98 69 64 6F 52 48 51 6B
 B9 D9 8B 37 7C DE 35 EB 17 22 E8 30 E8 41 6E 6B
 41 0F D2 7F BA 57 E7 79 38 50 07 87 D2 5F 20 B9
 8A 23 EE 3F 2B B0 B9 DC 44 3B 3F 9C 83 E8 5A E4
 D7 AC 38 20 87 37 7C 28 10 B7 0B 49 C2 78 35 86
 A2 4B 1F 4A 61 72 C5 B2 50 F9 56 85 A0 AC 49 43
 F7 64 BA AB 63 65 C2 26 8D 5F BA 59 8E A8 75 8A
 95 D2 DC 15 CD 4F CC AD 4B 03 EB 83 C7 62 2E 9F
 D5 13 BC D7 97 8E E4 00 88 25 F8 8D C7 2D 5A AA
 B0 FC EA 81 52 AD 5F BB 4F 35 99 95 51 BE F8 FA
 C6 28 CA 2D B2 3D 30 E2 4D 0E 46 B6 3F 83 3A 83
 00 86 CB B9 48 FF 57 0D 44 5B DE F9 56 0E 74 9B
 FD 91 1A 08 AE 2E BE 36 88 9B 43 0E FD 4B FD 18
 DD 83 DA A3 8B ED 89 6E 17 F7 25 21 8D E0 C4 CD
 27 E8 39 DF F5 7B D4 97 6E EA 16 05 4C 3A 8C 0D
 3C 6C 73 EC 36 E6 FA 15 AC A8 52 99 6E 80 37 D6
 0D CD F0 C8 81 FC 3D 61 E7 58 1A F1 D3 BB BF 6C
 89 B1 C1 14 46 1A E2 60 EC 37 48 13 DC 70 78 BE
 C2 FA 17 3F D6 03 DA 5D 25 34 FF 49 5D 9D 3F C0
 34 A0 4F B8 D9 4E 98 5B 68 E8 11 57 D2 D0 58 22
 C7 81 C7 2F 64 C6 6E AB DD 4C DF C5 97 CD 54 82
 31 AF B2 C7 AB 45 72 BD F2 56 5F CD EC 43 B7 65
 62 C0 ED 86 D4 8C F7 BC 2E DF A8 AB 26 CA 69 EA
 FF 0B D9 76 0B C7 AB E1 71 84 38 31 12 9F C6 4E
 AB CF 64 55 9D 55 CF 2C 74 B4 3D AC F7 DF 4B 43
 E2 CA E0 C7 48 30 97 D5 1C 5C 3C 61 69 F9 00 9D
 07 F4 D7 DA B5 FC 03 F7 A0 02 E8 6A 8E A6 49 93
 93 F3 6B AD 57 88 14 81 BA A3 9C 31 C4 8A A6 02
 5F 13 73 35 02 14 7E 5C 6F 5F AC 09 A8 02 82 D0
 2D F0 6B 92 40 24 95 82 D5 BB 39 8A FF A8 59 54
 A9 D3 BB 67 1F EC 54 98 C7 8A AC 7B 73 C4 2A 57
 BE 5D FA B1 8D 64 2C DE D3 F7 24 A1 56 F2 14 67
 14 B6 54 15 14 3E 44 58 0A 65 7F 9F DA E4 A0 F2
 9A F4 16 55 5B F7 E7 5D F3 8A 50 35 EA 8E 18 1B
 8A 8D D9 A6 5C DE 8D 58 BF 16 A0 48 E7 D8 6C D6
 80 10 97 59 83 E6 C3 00 44 ED D0 6D 9D 6F 05 44
 B8 37 EF 4D 1F 10 FB E6 79 1E FE 37 A0 82 16 BB
 EB 3D DF 02 C6 BA 3C 6C 2E 30 78 7A 8E 4A A5 CA
 C9 16 00 DB C8 F0 EE FE 52 2A C8 EF 27 61 DF A5
 9C 5F A8 CC F2 89 F7 B4 AD 00 BF 41 ED 3D 32 41
 75 B6 95 7B 95 A6 E8 70 47 C9 5C 4E DD 64 46 77
 EE B7 12 4E 66 E5 D4 DB B7 F9 7F 22 AC 77 9C FB
 CA AC 1A F9 48 C4 41 3C 3F E7 64 A9 2A 3A C5 62
 51 B8 B2 A7 29 8C 51 70 1D 12 52 5E 9F 0D 97 6E
 45 E5 39 4D DD 93 36 CF E5 83 65 28 4E 34 88 BF
 8C B9 F7 28 8A 0C E5 8A CE C4 D2 22 87 BF 62 64
 E7 0C EE 57 44 A4 B8 D9 25 7D A7 27 F3 8A E2 08
 C1 CA 9E 0F DF 84 81 3D A9 B2 99 57 05 FF 68 B9
 E4 56 65 5A 6E 11 78 81 2B 1F 0B E5 1D 1C 07 53
 60 6B CB B1 A3 A6 55 8A D3 06 2C 2A D9 A4 EB 20
 46 69 C8 92 80 F8 38 1F 64 78 61 EF C9 32 E5 1C
 0D A4 DD 18 10 E3 BC E4 2B 15 2A 41 3F 6F DA 2B
 1E 3E 7E 04 13 BC 7D C9 0A 59 8A BF A2 6A 83 95
 A2 AD FC 1A 51 3F E5 58 F4 C1 7E 8F EF BC 21 8B
 ED 9B D7 56 76 0A 1C E6 C3 61 F2 C8 B5 59 35 3A
 2F E0 7C 13 EE C3 2A BA 9C D8 61 17 E4 26 76 DA
 C2 18 D0 60 06 71 29 CD B4 D4 A2 8A 10 D4 30 A9
 C8 7E 5A 17 CF 9F 9C 27 F1 24 26 36 73 0A 57 EA
 25 FB DE 06 26 33 83 6F 0E 2A A3 B9 29 DB 7F D6
 2D 0D B1 FF DD 0B 95 E2 49 21 2A F5 BB 16 7D 3F
 06 3D CB 35 CB 93 5A 2A 7B 82 9C 03 D2 68 DF 3A
 A5 89 87 FE 60 75 56 20 96 AC 45 12 85 9E DD 64
 5D 27 C5 23 76 91 DC 6F BB C2 E2 ED 14 6B B7 39
 08 90 18 94 52 B9 60 3F 95 A1 E8 00 8B E3 FB 1F
 B2 D3 37 5F 2A 49 74 45 14 54 39 43 2F 1C C6 98
 89 D3 11 9E CF 59 3D CA BD 4F 4C 24 C0 35 62 5F
 3E 1F 0B 3F C9 AA 28 A9 20 72 1D 0D 7B 06 3A 7A
 CC F5 56 C3 3E A3 EF 67 2D C9 BE 06 DC 1F C6 9E
 FB 17 25 5B E4 EF 61 67 E5 42 34 10 26 64 52 38
 24 F6 C5 5A BD B0 7B 53 54 CE A6 BE 34 41 FB D5
 5F 9B EC 10 66 D3 98 E9 43 33 0D F1 A1 75 94 34
 8A FA DE 2F F9 83 17 D0 5F CA 49 AD 69 1B 57 79
 D3 5E 59 7F 3E 7D 4A 11 A9 9F 90 44 6C 57 D8 23
 15 E9 6D FF EB 01 60 8E F7 79 46 67 C1 06 5F 59
 D8 7F 9C EB F1 5B 3A 80 87 3C 88 D5 2E 22 70 64
 24 FD CC 09 38 D8 2E E5 AC A2 D1 9B ED 57 F8 D8
 25 D9 60 60 22 F1 12 24 FA 07 01 28 4D 65 09 2D
 1F 1A CA D4 2E 49 C9 81 98 23 51 18 52 1B 9C C8
 DE 58 35 BA BC 2A 8F 1E E9 C7 B0 D0 91 39 9D 8D
 5A 28 A2 A0 8A 84 FB 16 91 AC 46 8B 79 C6 66 B3
 69 01 02 A5 60 68 6F F5 16 9E F7 0E 77 F8 1D 6F
 A8 C4 11 DD A7 4D 4C 36 FA 56 72 13 A0 30 65 64
 21 E4 DA 8C D3 CB 4B 22 64 31 E3 12 89 5B FF 06
 95 39 56 84 08 F5 ED 3F FA BD 0F 19 B0 86 77 49
 88 FE 7F 53 8E 52 61 10 46 9F 6A A3 86 6B BB C2
 D8 61 C2 34 70 5F 2E A6 22 DF 41 31 28 DC 51 D7
 E7 D6 FA ED BC 72 B4 96 A5 94 EB CA 0C 05 28 52
 EF B7 F1 49 05 A0 4A 6B E5 AE 2E C6 D3 B9 BA C5
 97 F1 52 F9 15 E5 A8 9B 1D 63 0E 59 EF B1 ED 1C
 46 1F CA F9 09 24 67 82 4A AD A2 0C 74 8B D9 9E
 32 94 E6 76 AB F0 55 FB D9 81 92 AD 7A 4E 6C 96
 3A 78 8D 24 E0 28 79 E4 30 21 22 29 D3 E8 39 1E
 08 B4 DD 56 F8 B5 5F 45 94 8A 3D 7A 1C 1A A8 9F
 B4 CC AB 88 5E E6 1F 9C BE 62 7E 7C 96 DA 99 27
 DF 4C 71 15 88 10 57 D0 26 67 A2 77 83 9C F2 9B
 11 C1 B4 BF E3 0E D5 67 2F 9D 7D 40 3F 30 08 8E
 D0 21 53 34 3F 7A 81 17 7C B1 9E B7 3C 2D 12 C7
 FB EF 8D B9 C7 8E 31 93 06 DE 81 C7 62 11 59 F0
 DF D8 A3 EA 5A 64 F9 49 CB 45 04 6F 24 48 22 CD
 34 65 59 47 A9 37 02 62 E8 0D AD 8A 28 A6 8B B6
 22 F8 28 BB 0F 01 38 9E E2 EC 85 5E B7 63 28 BF
 2C 47 CC 6E 8D 9B AE 79 A6 8A FB A3 AE 44 88 DD
 FD 43 E0 63 0E 18 4A AF 09 C0 8A 67 04 CF 67 80
 7D C6 DF 4E 3A D7 FB BA 6A 34 C1 E1 F9 85 19 61
 43 E1 0A E6 16 28 66 DC C2 36 B5 9B 66 FB 78 73
 D6 9D AA 08 68 26 4A BB DC 0C BB 95 8C C7 D2 A3
 D4 9D DC EA E4 C5 C7 37 29 1B BF E0 64 FB 4E 66
 80 36 E9 AB D9 3D 82 30 E6 FE 30 DB 31 79 5E 60
 38 94 22 53 60 0A 55 6F 62 5C 56 DB D2 78 CA 6D
 BC 28 34 8A C3 4A C0 E8 E9 FD 44 BD 25 9F 6F 72
 59 1C CE 9E 0A 7D D8 F0 8A FE E8 E9 5B 7D 75 27
 CC AB 5A C6 FE DF 23 1F A4 8B 49 15 2E 4E 0F 0B
 79 9A D1 42 CD C7 30 76 2C 8B 66 31 45 B0 67 86
 4B C5 C2 78 28 42 CD 4B 02 13 A3 8D BA EA 27 B1
 81 A6 6E 7F A7 9C 0B 87 C9 D1 64 5A 03 54 03 6C
 1B 1E 81 40 B5 71 74 43 DF 15 82 65 C0 FB 3A DE
 96 4F A7 5D 69 FA 6F 9E A4 A8 09 C7 9D 5E 23 87
 4B 7D E0 EF 6D 71 AA 47 DA 65 1E 25 DE 36 C3 A7
 BE 86 63 D8 6E 32 F1 FD A8 91 A0 BD 94 BA 78 F9
 64 33 51 B6 1A E8 ED BD 33 C3 20 C2 05 E4 2A 26
 AE 24 67 DF 70 AB 7F F6 8E 2B E1 E0 98 08 E3 55
 38 8E CF AA 87 6C E9 5F D9 CC BC 31 82 48 96 E6
 CA 62 C1 30 3D 9B 2D 06 D9 22 CE 15 D2 FC 3F 49
 3F 35 BC AD 96 8B 53 E5 05 C9 62 8E 5B 6E 07 3A
 CA C6 A5 43 69 DC F4 91
* End 2597464977 3418142198