* LTspice Encrypted File
* 
* This encrypted file has been supplied by a 3rd
* party vendor that does not wish to publicize
* the technology used to implement this library.
* 
* Permission is granted to use this file for
* simulations but not to reverse engineer its
* contents.
* 
* Begin:
 90 CA 68 64 5A E2 8E B7 07 6E 65 A5 FD 8D 3A A0
 1A DE C0 B4 BC 6F CC A3 4D A4 2E A2 5F 63 26 B5
 AD 7B BD 57 1B AD 7A 3B 3F 10 1B 8D AD 62 D4 DB
 66 C4 F7 7B 40 0E 35 8F 71 CE 53 F3 DF 7F 05 5E
 40 A2 0A 5A B2 74 16 B7 02 02 0F 15 86 D9 FD 71
 1C 3A 59 46 31 2A E5 D1 D9 C2 E4 45 52 5A 0B 7E
 92 9D 8F 1E EF AB BD 40 89 D2 96 B1 6B 4A 3A 58
 1A 7B 87 3C 84 B5 A5 58 FD AB 66 19 05 FA BE DA
 D9 97 F0 F1 94 0F 14 25 3D AB 7A 81 E1 E9 16 92
 C8 26 AF 73 30 B6 9C DF C9 4D 3F 42 98 AA DF D2
 58 18 D2 80 E5 53 03 5C 97 DA 73 68 FF 1C D3 71
 AF 6A 0D 60 9C DE AF D0 F9 08 07 C4 4D 8C E0 D3
 9F 9A D8 62 D6 66 4F 68 35 A3 7B 7B 87 21 94 E2
 B2 24 C2 DA AC 17 E6 BB E7 DA 9A 38 3D 2C 4C CD
 E0 40 8C 97 23 4A 91 E4 CC 63 B2 69 E8 82 D8 86
 6D 45 C6 57 25 34 A2 19 0C 90 91 87 9A 5F A9 44
 11 07 07 FA 6A BF 2C C3 39 2C 6D AF B1 69 9A EB
 13 A1 31 E1 06 3C 80 3E 51 52 AC 44 19 38 41 F6
 EA 2E 0D 4B 68 18 06 BD 45 F3 9F 58 44 56 BC 95
 53 01 3D 3B 78 DE A6 62 9D AE 08 73 55 CE F3 8D
 B0 B3 0E B4 F5 7F F3 09 8D 15 15 80 D7 56 DF 63
 52 0C A4 5B 31 1D 23 E3 A2 20 57 F7 5C 23 78 47
 45 21 02 DD 98 12 59 7A 74 F5 1B E9 25 17 A0 FD
 E8 7E 54 35 63 17 B4 FA DB AA AA B6 22 01 BB 72
 24 C6 1B 47 6E 08 29 DB F7 76 C1 82 F2 91 71 EF
 14 C9 35 BE 5F 93 C4 8E DB D8 AA 15 FD C6 29 88
 9E 8C 7C 68 99 31 CC 36 D7 CA 77 E2 9F B6 CA 03
 DA 89 75 05 3C A6 B9 59 E8 3A 4C D3 7B 95 D2 56
 54 C0 E3 BA 31 1C 55 AE 46 FC 94 63 93 7B 94 C0
 1A 4E 7B A5 7B F7 BA 92 CD D9 E5 20 29 EF 74 E9
 DE 0E 32 CD 69 D6 74 6F 81 B0 11 3C DE 4E CE 8E
 95 2F 18 EC D9 26 F0 3A B6 9E 70 F1 88 F1 0A 1F
 4E 77 D4 EE 08 FA 7E 6B 84 FA A4 63 D8 03 18 E3
 48 F1 65 CD C6 77 17 28 37 28 DF 32 F5 11 38 31
 4B F7 AC D8 66 B4 98 C2 72 31 62 FF 16 69 77 9E
 C4 74 0B CB 5B EE 1A 86 0C 98 AA F9 72 00 E0 A0
 2C 07 03 38 87 DF B9 9A 03 CA 78 12 A7 98 B3 00
 6A 4D 1E 67 A5 6F 4C B6 21 89 B7 F9 AB B6 18 66
 3D 9A 22 E0 0B D7 63 EE 40 EA 61 94 0D 04 25 58
 F2 07 19 C2 8C 07 19 1C E0 6B 4E BC 62 66 ED C9
 B7 3D E3 B6 40 37 90 4B 06 34 C8 28 3A 20 A3 63
 38 BE 8E 43 40 6C A4 D2 89 14 B6 FC 83 86 B7 E9
 96 47 4C F8 4A 22 EB 2A C8 15 34 99 33 82 98 10
 82 B7 D6 1B 3B 79 6C BE 1C B0 01 41 8B 8F 98 4D
 F2 73 ED D9 12 47 E8 E7 C5 B2 D3 DF 78 A5 68 8B
 0F AF D0 D4 61 CF 0E 73 B5 C6 D7 8A E2 33 0B 39
 E7 30 88 3B 91 9F 8B 3F 5D 4F 80 E4 02 F4 BE FA
 FA 00 9D 29 56 CA E8 FB 40 E8 AE B3 6B 40 BB C4
 19 87 89 BD 8B CF 53 C5 D0 E8 5D 6D A8 E5 3A 57
 96 2D BA 9A 18 97 A1 C4 39 1C CC 1D A2 45 C4 A7
 8C C0 AB A2 E3 2C 61 B0 94 A3 6B 5C 39 A4 CD 55
 41 9C 8D EF 7A 3C B1 D0 D4 9C 1D C8 EB C5 77 E2
 41 88 AC A3 D5 CA 4D 9E 51 E8 6D C7 AC 7F 9B D6
 D1 C6 34 7E B2 11 AB E5 45 A3 A4 64 58 DD FE A3
 DC F1 01 56 18 77 58 9C D6 73 6D 38 64 96 26 F0
 EB 76 24 9E 79 09 70 D6 FB 93 87 F8 3C 1D BA F4
 EC D1 A1 97 94 2D 3F C2 52 1F 2F 3A E1 47 4E C1
 53 68 3F 27 A7 46 5E AD 48 E3 44 6A 10 9E 59 71
 52 E5 A9 86 03 8D 50 66 EC 25 23 6D 1D 88 14 B1
 AB D9 44 A5 BE C2 B5 AF 05 D5 3C 94 8A 35 94 50
 14 78 B6 E6 6D 22 07 C1 7D 89 15 F2 E9 95 EA 24
 2B 8E 7D 49 1E 45 B4 C3 86 3E 02 0F 4A F0 BE 46
 2A 7B FB CD 26 32 48 6D 94 85 4C 9E DE 43 D8 63
 09 0F EB 46 78 5E 8F 44 2F 00 5F CF 20 79 4F 28
 A2 12 74 88 32 78 52 1C 3F 4F 5F DC E5 20 72 D8
 2C 20 FB 81 B9 AD 49 30 12 56 A4 3B AD 07 2B F6
 1C 04 0D 95 6C 7A F4 CA E2 95 3D 97 3D CE 98 55
 5E DE 4D 32 3B 27 C8 21 67 ED 7A 4E 26 C5 5D 94
 5E CA 94 EC 2A F7 A5 08 B9 4E 42 D9 93 34 9C 66
 7C 22 F1 6C 24 F8 2D 41 31 AA AE 5F 44 0A 05 AE
 87 24 5B 9F 45 CA 60 92 09 C3 7B E7 03 30 B8 52
 2A 0D D8 A3 DF 7D 77 C3 1C B6 AD 65 C4 25 42 12
 D3 EC F2 AB BA DE 08 3C 03 8B 02 D1 EB 7F AC 88
 AC 09 34 9B 5B FC 2C 4A 7C FD 78 3F 30 51 DF B5
 EB 6B 0B 72 F3 D3 50 F2 CE BF EF 4C C8 FD 3F A1
 28 A9 87 9C 56 5E 46 04 26 B5 41 C9 E9 0A A6 6A
 ED F1 A7 AA 30 2C 10 25 12 0B 94 D4 75 62 6F 0B
 70 6E 57 6F 1B D7 FC D9 D8 32 52 FD 6A E5 A6 10
 64 8A 43 1E C8 0C 47 A9 66 3C 29 8A 14 68 29 F7
 EA 79 77 D3 1C 05 56 80 9A 64 89 84 AE E9 A1 0B
 7B 27 24 CE E5 AB 5D 28 96 B6 38 70 EF 53 25 3F
 77 82 1F 9E 08 3D A2 72 90 82 61 61 3F 11 33 EB
 4F 8B 98 30 FD 35 90 61 CD C1 77 60 6B C1 BA 05
 45 38 18 C7 83 37 9D DE 5F 70 1F 33 69 CD D2 C3
 73 34 87 16 F5 D2 7C 8A 9D 35 49 9C 1F C2 E1 53
 68 3C 0E E3 19 7D B5 18 FF 0F 64 00 89 D9 0E 10
 D6 4D 70 3F 11 1B AD 0C B9 09 74 96 C9 4D 51 2C
 82 A6 27 9C 22 7F 82 B8 A0 CF A0 AA 68 4C F6 6D
 75 D6 2C AE 1C CB 6E 59 71 E9 51 40 8F D4 33 B0
 50 76 7B 45 AD 9F D7 11 06 BC 17 EA F9 2B D8 BC
 AD 07 EA B7 69 93 F8 87 DB D8 69 EE 4C D6 45 80
 54 94 3D B3 9C 28 87 E4 4F 07 60 86 DC 73 49 60
 93 F7 B4 5E 08 0E 57 EC 3E 5E 34 EB D4 30 C4 96
 86 A8 0B 0B B8 65 64 31 84 FE D3 1A 07 47 4E 43
 24 12 A4 C7 32 E9 62 98 63 20 A6 CC 33 16 6E 43
 88 7B 88 DE A1 3B BB 1E 6E F5 3B 2A C0 76 68 27
 90 F5 28 19 FA 29 FC D3 20 F7 59 E8 B7 3A E9 57
 2E 89 67 D2 B8 B6 28 5F 35 9D A5 43 66 4E 8E 72
 06 6F B6 75 63 34 7A FB DC 56 30 B0 5B 8E 1D 01
 08 5C 0E F3 CA FD 69 18 78 1D DC B4 3D 49 46 3A
 1C 8C 13 FD DE 35 22 82 09 3D 07 C7 23 15 C6 99
 CE 66 5B ED D2 30 0A CA 9E A2 B5 FA 42 D3 71 42
 D7 84 79 D6 49 BA 6B 8D 9C 5F 01 E2 88 E9 7D DB
 0D 3B 93 5C 7E F1 3B 5F C3 63 84 92 2A B9 C7 23
 A5 9C 4E 84 42 AE F8 66 A6 B4 2E 34 F4 C6 D5 38
 5F 14 C0 84 1E 27 2E F8 63 A2 3E 7F 54 00 9F 4F
 FD 07 59 84 3B 4E 9E 3E D8 E3 5E 98 55 D1 CD CF
 49 B6 0E 24 A6 67 E1 03 BC B8 0A 30 23 A8 29 40
 B2 40 51 90 13 0B 65 10 8B F5 99 E1 3E 72 06 C4
 F3 68 46 4A FC D3 EE C3 A4 04 11 D2 70 D8 FA 2F
 50 AC 50 D8 01 F6 5C 23 76 D2 67 52 0D 4E 68 90
 37 A2 9E 01 5D F6 25 7F A1 80 A2 B9 13 7A 48 A3
 C5 6B 38 3D CF 65 B2 A6 60 DD 8C C7 80 CE A7 64
 4E 90 89 A2 FC C6 D3 99 FF 0F 24 46 E7 A4 E4 82
 B5 6A 7F 41 F8 48 C3 C7 6F C2 60 8C 44 1F 77 6A
 F0 C3 13 B4 B3 CA E6 47 FB 3F 48 C5 C4 76 4E CE
 8A 0D C3 14 D8 5C 6F D7 74 52 B5 B4 88 BD 2A EB
 DF B2 C8 FF D9 A9 40 B6 6C F8 7B BA 8D 1B 0A 63
 B5 8E 0E 7E 0D D7 2B 1F 0C 8F C7 92 C2 BF C7 8F
 FF FC 38 C5 89 99 AB C4 87 90 4A 38 72 25 94 E9
 F9 21 4B 95 5B A2 B0 0D 26 50 10 EA 4D 0B 41 FD
 F2 EE FC 6B C9 1E 59 A0 C4 97 1D 76 0E 77 14 96
 89 71 03 07 00 6D 76 A4 21 F7 5F 80 FF 9C E4 D3
 CB E2 7B 7C 6D D3 19 E3 B6 89 AD 1C 36 F0 00 3F
 F1 87 10 54 75 B4 20 48 ED AB 22 9F 70 6E D0 E0
 FD F5 B7 14 62 34 D0 08 9E 66 8C BE F4 7E A1 DB
 B6 DC CC D8 7A 3E 1D 68 C7 E0 E5 8A 06 8E 80 E8
 A7 B2 B7 47 EC 30 2A 7F 1B 8C 2B 8A 9E F3 1B E0
 B0 4D EF 1B 6D 20 2F 91 2D EE D7 65 88 E2 9D 69
 C7 95 BA 1A 80 48 A1 7C D8 AC EB 17 C0 F6 5B C5
 59 95 25 C1 19 8E C7 56 0F E9 A0 91 06 5C D3 7B
 3A 27 48 E8 4F F0 CE 8C 61 2A A2 35 55 94 CF CC
 8B B0 F2 03 39 9C C9 23 CF 16 FC DC 3C 3A E7 9A
 CB DC 7A 02 25 4D C1 01 44 3D 72 06 40 4C 65 11
 A4 02 98 ED 6B B7 59 56 75 87 0A 20 6F 33 61 7B
 F4 83 B1 75 5E 21 EB 85 E8 4F 17 AC 94 DA AD 0E
 9D 1B C6 60 B9 BA 07 93 D6 7E 78 74 B5 2D 28 9B
 27 EB 9D 7B 34 29 C4 30 D1 00 8D 3E 92 0F 14 55
 7B 27 4E AA 8B 75 96 EA 81 A8 5C 7C 8B 8C 8B 51
 AF 24 49 A6 CD 47 AF 59 5F 06 38 B2 E9 3B F6 82
 29 F3 4F 74 60 DB 35 08 21 39 B5 73 DA 7C 64 E2
 2F 49 85 54 31 D6 EA 0D 2E DF B5 45 E5 C1 9B 7B
 F1 DD 50 B6 8F 93 C7 03 65 72 EA 59 3B 44 BB 07
 B7 44 7A 47 D1 F0 A2 9B B0 64 69 75 F7 50 68 51
 88 8F 06 6C 87 74 69 89 35 A5 D0 2C DC 79 A5 54
 C9 DC D3 0A 6B 24 27 69 03 32 3E 4C 9D E0 F0 40
 B1 45 59 4D 16 56 31 87 54 09 24 E5 85 7F A0 67
 60 3E BB 89 DC FA EE 6E EE D5 B9 7D F6 2F 25 BF
 25 8A A2 AB F2 1F 3C 53 A7 0C FF B2 2C 01 F5 FC
 A9 44 D0 23 44 52 DA D8 7B 3C 29 A3 81 86 E3 0E
 9D C1 72 22 35 BA 16 B9 4A 7D 17 0B B0 56 F7 0D
 7B 17 53 6E 62 05 FA 2A 69 D2 06 12 D0 8E 02 72
 22 4E 51 67 2C AE B7 BA 1C AD 64 2F A6 10 55 C5
 2D E8 4A C1 AE A6 E3 0A 87 95 D7 34 A0 8B CE D9
 CB 7C 9F 82 66 84 F2 D3 B3 FB 00 61 C4 2A BA 3B
 24 64 F3 81 77 47 3B C5 50 7E 6A EF 54 F5 02 58
 FD DF 6C 44 C3 20 A4 85 80 BA 2D C6 79 6C B3 84
 78 FE 8B B6 6B 17 B0 A9 D0 64 CA CA 75 D4 2F 4A
 26 C1 BA 85 A0 71 FE 32 D6 5D 12 1D 8C A8 43 AF
 93 7E F1 45 E6 56 D6 49 93 AE 21 77 E5 FF 5D 7C
 96 65 11 EB 08 61 48 1C 51 3F AD 9F 23 75 D0 7C
 C0 86 2C 34 1B 10 46 E4 56 43 03 B7 40 80 52 4F
 2C 92 8E 22 2E FF 2B DB 4E D6 F1 05 55 E2 8C 53
 F3 B9 DA C5 6B 84 12 EC D2 75 92 31 FF FC D0 86
 76 CC 71 E9 66 C5 64 53 05 7F FC 66 21 32 2A E3
 CA 6E F6 8E B4 A2 BA CE 0C 97 73 D8 4E 43 64 B9
 EC 6E 2A 82 16 BD DE C3 3E 85 E2 72 D7 91 F2 A0
 6E 3D D1 C0 FD 7C BA A0 85 12 F8 DA F6 D6 A2 E1
 51 BB C7 B9 DB 51 31 F7 E5 3C 9B C0 32 0F 1F 2D
 F6 46 48 0E 9F 9A 28 30 C0 52 37 57 11 BE E5 F6
 C2 C9 62 F0 89 08 38 9C 18 6F 30 82 67 AE 49 B8
 AF DB 34 89 2A 72 F2 0E 9F 03 14 B7 97 55 FB 29
 AE C0 B0 2E 6F 94 5F 0D 59 AA 74 34 EA 37 BE D8
 32 D9 92 6F 8A 81 76 AE 90 BA FF 65 EB 8C 81 FA
 1D 1D 9A 8B D9 6A 03 88 A6 F3 A0 89 9D 66 F2 45
 AC 13 B6 C2 89 46 DC 94 9D 5B BF 4F 2A 41 A4 03
 B2 DC 1B FA 66 8A 1B 4C F5 58 96 FC 83 ED DC 03
 4C E8 89 C2 AE 3D 80 BB A5 50 BE 36 74 E7 7E 88
 9D CD 12 FC 7B C1 3E C4 51 4D A8 BC 75 0D BB 83
 6F C9 A6 22 D6 3F 75 44 58 2E 4F 18 0C 79 60 1C
 31 DE 4B E7 94 5D A3 7A 45 21 C6 1E 9E 9F 24 45
 90 A5 75 54 5C 39 3C 2A 84 4E 2A 18 23 72 48 D5
 56 1C 30 EA D7 F2 E5 26 1C E8 5A 9B 77 0D 31 B0
 57 E0 B6 45 6B 35 D9 9E 3F 54 BB 6A 66 DC D3 48
 88 A0 3A 8C 3C C5 13 72 28 A3 F3 83 C7 AB EB 3B
 CA 07 3B 2A D9 23 56 57 82 BA E5 83 D3 96 A8 AD
 C0 6B 35 98 2D 3D 2C 71 B9 8A 90 58 6B 3B 74 FE
 23 EF B4 E3 71 3E 35 C9 6D C2 64 3B A8 21 57 CC
 3E 1B 25 57 71 01 46 9B 2F D0 B0 97 DD EF 12 54
 BD D5 C1 99 1B A0 AF 48 08 28 2E D7 C3 3D D8 B2
 01 33 EA 14 FC E6 E0 8A EB EF 2C A4 1B F7 C6 4F
 8B F2 F0 F0 B1 91 88 C8 93 87 36 90 A0 02 81 C0
 EE 90 2C 7E B6 50 23 E8 E1 89 89 3B 89 12 89 41
 C3 EC 83 92 A0 BF 1D 2A A3 75 0B 47 E4 66 51 A3
 7E CF 73 6C BF 90 FC 77 87 93 CC 59 EE 26 BB 8C
 F3 D8 B0 C4 1A 69 F4 76 9C D8 14 FD 90 D4 7A 94
 D7 41 77 41 69 4F 77 8A 42 61 40 8C 96 80 89 C4
 4D D8 45 C1 D5 BC 6C 54 BF CB 55 FB F0 D7 9E 2F
 8D AD 75 DC F2 25 0C 58 CF DF C2 99 A0 9A 89 DB
 FA D5 1C 50 32 BB 62 05 7C 16 08 E7 DB A1 87 1D
 FD 78 88 19 8D E2 D0 35 2B DC 58 72 35 EB E5 50
 F6 45 67 6C D0 38 99 FD 56 2B 36 D5 3A 93 3A 1F
 EC F1 53 B5 B4 49 25 E8 43 BC 37 9D D6 23 A1 BD
 48 0E 8B A7 66 FA CE 2E 7F 13 AC 54 54 21 49 5F
 C9 41 C5 CA DF BF 60 B6 30 99 88 80 0B 33 8C 55
 5C 04 0A 99 42 7A D0 BD 25 C7 6F 3C A5 0C 66 35
 4E D1 A4 A7 A9 9A 68 3A 4C CC CA 8A 09 E4 1F 82
 EE 63 B0 A1 61 5F 25 D1 E4 87 2D AF 45 11 F9 DC
 8C AA 61 FD AB 63 88 D2 D4 38 1B 68 E9 3C DF 92
 EA 5D 9C 43 C2 44 C4 A7 2D 79 C2 2F B3 07 26 C3
 07 86 D9 17 1A 38 46 9F F2 01 E2 9A C8 0F A6 01
 38 69 2C 0B 23 2E E6 8E 28 B2 2E DA 89 D9 1C DC
 00 E8 2B 0F F1 89 CC A7 88 7F D0 37 51 4D F9 66
 B7 6F 83 C2 ED D8 C3 E6 A6 06 FE 03 54 84 F4 04
 48 FC DB E5 4D AA 67 39 4E 3E 62 74 A7 62 3F 09
 7F 50 73 47 85 F1 E0 EF BA 45 D7 50 25 85 4B 55
 4F E1 19 6F 2D F5 94 04 28 E1 4A 10 53 C8 17 B9
 3D D5 2E F0 8C C9 92 31 99 99 98 9A 44 E2 43 51
 E4 13 06 9E 9B 26 2E D6 FE BD 2D 06 6E 09 76 9C
 F6 AA 12 6E 9E DD DC 34 85 00 4E A9 A5 94 0B B8
 1E 7B 20 49 E9 69 47 65 FE BB 22 D3 B8 52 DD D3
 34 28 86 BE 6F B9 CA B7 85 09 95 E5 E7 19 BF 58
 DE 0B 57 E9 10 CE E8 D9 DA 3F 8B 33 5E 43 7B 45
 39 6E F5 8D C2 E2 67 7D 3F CA B9 38 68 7C 3A 8C
 99 8C 79 2A AA 38 2F 6A 58 A9 2C AE A8 5C 0F CA
 B1 A5 3E F4 0B FB 38 A0 9D 1B C5 74 F4 53 7A FD
 3F 19 D9 D4 07 E1 92 53 99 0A 2A C9 A4 4F 4F BC
 FD 98 3F BE 71 F9 AA B2 B1 0A 74 1C 83 87 83 F4
 5A 22 EF 3D 2B 26 09 A8 99 E1 D4 48 48 F3 65 9E
 C9 AA C0 AD 83 FB 9F DD BF B9 B0 30 31 7A 6B 0A
 F0 63 B7 9A 58 13 78 BB DE 1B 4B D9 65 D2 D9 79
 A4 75 DF 48 E2 BB 70 2E 49 D2 6A 98 1E 88 A7 77
 0C EA AD F8 26 0B 5C 09 78 DE 81 C2 5D 0B 08 1F
 43 AE D1 BE 9B C0 D5 A0 5B E3 4E 65 33 DC 75 EB
 0A 7E 4F 7F 64 BC 3C 27 63 30 E6 CB 02 F7 5C 5B
 1D 10 13 CD 5D 50 C9 2C 68 36 8C 5F 9E 8C 73 69
 B3 53 C0 55 A9 D5 1E CC 1E F8 B5 E8 52 56 17 04
 6D 51 77 1E 66 9F AD C8 03 F2 44 54 41 89 C2 18
 26 0A 62 F4 22 38 FB 68 F7 5D 9E 9F D3 0C 94 50
 1C E9 61 BC 67 66 E7 6E C3 A0 3E 28 9F B4 9B 97
 6D 19 63 4A B3 46 FD 2B 48 5E 11 85 E7 E9 AC 25
 41 DA DC 6A 45 33 3F FD 75 CF 6A 63 A9 88 80 53
 62 27 14 8F F6 07 4F 46 2B 73 0A 4B 2F 54 66 7C
 FF C9 66 47 B7 CE EA 26 2F D8 22 C2 18 9B 93 3E
 70 74 DD 3A 7C 1E B9 4F 2D A1 11 BD CA 97 B7 21
 7E 5F F9 48 D3 4F 2B 59 6D B3 7F 6B C7 71 0D A7
 EA EF 6B 4D A9 97 F1 05 3C 01 BE 1B 55 76 E8 FB
 2D 19 24 25 34 C8 3D 8A B8 AD 7A 12 3F 61 C3 0E
 60 58 FD C5 2C 52 3B 07 87 39 08 8C B2 88 E2 16
 6E 49 3A BA 2A 60 74 D0 0A E2 E8 EA 4C AF FB DD
 A6 EF 24 7D 02 05 2C CD 4E E5 0E 85 5A 91 6D 48
 E1 06 2E 9C BF 73 6B 44 6E 6E 78 EF 11 12 18 3C
 C1 70 85 29 F9 AE 48 78 C6 BE B7 1B 92 9F A1 69
 6E 64 6F 27 04 7A 5E CD 1F 11 7C 2F 74 88 03 D1
 6B 00 9C CE 88 DF C9 81 C9 22 8E 79 FC E5 10 4C
 05 B2 C4 22 CF F2 5E 64 75 4B 96 84 B0 06 5F 53
 6D 81 43 F8 19 4B 3E 3F 6F 39 70 8A 3C 81 63 65
 59 02 3F 34 C9 26 6E 9E 35 03 32 5D EF 4C 37 F9
 16 E7 D4 39 4A C6 4B 41 9A 22 54 FF 6C 08 5F 05
 F8 43 32 C2 B5 CD AD FE 8D 28 E6 05 89 4D 7F 56
 22 F8 E7 66 86 90 99 58 D2 4F 79 58 91 C9 1E 99
 56 D7 39 71 46 69 2F D2 5F 12 FE 2D FD FA 75 38
 0D 46 88 EB F8 34 B6 A1 0D 13 B4 B4 B9 F8 68 7D
 E4 49 7D 10 64 F8 1F 4F DB C6 EB BE 14 07 37 45
 3C 2D D3 90 B2 A5 56 E9 5D 17 21 E8 61 4D F0 9D
 5A E7 87 AF 78 92 F9 01 63 F3 65 1D 21 5C B9 BD
 58 4D 7E E6 BB 4F EC 7A 7F 80 15 57 DC 87 BA 06
 77 F5 E1 EE 6F D1 3F 56 87 89 2F 45 A1 7A C8 5A
 3F 45 4C A4 D5 0D A8 78 99 F6 CD B9 04 E8 5F F7
 37 26 1E 62 F2 CC 51 59 44 EF 61 9D D0 C7 21 85
 DD F7 85 BE DF 74 10 86 01 39 58 6A F8 F2 AD C3
 04 9C 67 C6 74 55 49 0C 62 EB A9 9F CD 06 95 BA
 AD F8 66 51 D1 63 6C 29 55 D0 1A 81 54 AF F8 B5
 2F 72 1F 61 03 97 8A F8 A1 96 E6 41 EF 16 13 5A
 B8 93 81 29 89 98 E7 7A 78 E9 EC 41 78 15 97 76
 61 5C EA 23 FA C1 CF D2 CC 7F 72 A6 68 D9 0E 45
 DD 0C 23 D6 66 08 87 26 41 51 C7 17 31 52 72 54
 2E AC 23 8D AA 0C 6D 0C 59 4C 1F C3 55 92 2C E2
 81 06 3E 29 20 7B 49 37 4F 50 25 95 D5 D4 FD DA
 6C AF 89 15 0E 00 80 5C EB D5 D5 9F D6 66 6C 30
 6F 52 02 74 6F 41 82 B9 E5 66 A8 98 88 C9 6C A6
 54 02 C5 1F 40 B7 69 48 1F 12 0B FD BC B2 9C 9B
 92 B9 AD 82 CB 43 E0 5A 02 0D 38 FE 63 23 21 3A
 08 5B 5E 06 5A 94 DC 66 41 86 12 E0 F0 2B 36 2E
 4F B7 81 E9 DA 0F A4 AA 58 D7 F6 A2 05 40 EF B3
 93 35 5B 03 68 D7 38 5D 9F 92 9E 9F D0 F5 43 E0
 46 B6 F8 FA AF 9B 77 47 9F 5F 5A BA FB A1 59 5B
 2D 7C 67 27 57 19 D3 F1 98 93 50 F1 86 8F 86 C8
 80 C3 2E 28 F8 04 62 6B 4B F8 EF B1 34 61 DA 87
 E1 45 9A 4A C1 08 05 24 45 02 F8 83 93 E1 1A 2C
 CF 22 86 27 DE 13 28 55 A0 F8 B5 07 55 35 B0 84
 5D 2A 0F A4 30 39 61 92 21 F5 8D 16 9A F3 B9 BE
 24 25 53 2B 74 5C CD 06 B3 71 FC EB 0D 1F 51 EB
 4C 6B 3D C6 2E 04 35 82 7F 25 E6 E1 81 C3 9C 02
 4B 02 09 D9 8D 01 75 4C 3E 89 5E CD BD 6E D5 A0
 54 AE DE 17 70 6C 32 0D DB 28 A6 9B B5 AF 4C B6
 10 7B 31 32 82 01 B8 F4 41 8D D5 2D 05 60 AE 56
 1B E6 BE CA 6E D5 61 6B 02 30 75 3C 74 20 1E B1
 B0 80 DD 65 3E CD 2C 54 22 58 99 F2 16 07 68 64
 C4 1C 8B 56 EC 75 80 1A 6D 44 FA 83 86 A1 36 18
 98 66 40 63 58 55 A8 2B DB CD 6C 25 B2 6B DC D9
 68 74 48 4B 39 5B 54 33 8B FC 11 1D 93 76 4F 35
 D9 5A C8 A0 9A 9C E2 26 59 DD 5D 31 8B E1 93 F4
 FC 88 E3 DE 65 33 69 78 14 1A B8 14 65 D2 6A C8
 68 18 76 68 5B BB 79 D6 72 82 1C 0F 6C FD 88 B3
 2F 4D 8D BD 54 75 A0 8D 7C 9B FB B4 C5 98 D3 97
 44 AA 57 69 01 8C 88 44 B6 1A A2 45 B3 46 72 44
 FE E5 95 D9 F4 50 72 8C 01 EE 9D FE EC 42 22 7B
 D4 92 94 B9 88 94 D0 10 B5 20 D7 F5 45 72 E5 F0
 C2 6A BB 98 02 F6 CB 51 36 A9 54 D2 15 70 B4 83
 B3 51 5F 35 83 9F 74 22 84 0E FE 3A 72 D7 8C 0B
 E3 E3 C0 E1 26 83 42 97 72 A4 E0 CB A4 EC 6D 79
 F3 B9 A4 51 03 BE DD BA 6A 61 43 3F 1D C6 E0 FA
 9D 14 76 F9 DE 54 FF BB 42 57 AD 43 1E C8 E7 9F
 D4 D2 52 E4 99 BD 4F 5B FB 99 61 CF 8F 96 50 71
 22 DA 18 2A 5E 94 1E 5E 55 7E A5 AD F2 3E 8F C7
 98 B3 B5 25 95 97 F7 21 2B E8 5B 17 5E E7 50 60
 41 17 B5 AC F2 48 8E 74 DC 6D 1A 09 2B 20 26 24
 4F B5 C1 88 03 0D E1 F9 23 3F B0 DB 01 1F 8E 34
 F8 DA ED F2 F3 FB E4 14 67 39 16 DC C3 71 69 CE
 E3 2E 0B 08 35 10 59 91 64 19 DA 8D 6A 85 F7 F7
 83 84 84 9F FE 81 37 EE C7 93 1C E0 8C F0 7B 10
 D3 F2 FE BB C4 CE E1 64 DB 8B C5 9E 3F 7B 19 68
 8D 23 8F 0D 92 C0 0D 6D 3B C7 25 AF 8A 0E 81 B9
 A7 2E 11 2F 7A CE 9F 3A 95 B0 B0 CC 8F 6C 8C B1
 E9 80 07 AF E5 60 24 98 70 DB 0F D4 D7 28 41 62
 65 E2 9D 52 EE 2C 8E A0 4A EA 0E C9 AE BD 0A 23
 12 09 A3 B5 21 D6 59 79 AC 4F 6F BD D3 06 2A 0A
 00 64 91 28 00 EC 32 A5 97 03 08 58 B9 AA 0B 64
 7E 78 A9 40 48 AD BB 1D 6C A2 8A 5E 02 F0 22 40
 04 95 8C AF EB 7F 7F AD E6 98 7F ED 2F A1 EE 08
 A8 28 D5 46 67 4A 2A 3A EB 0C 82 E1 51 FB E1 A7
 2E 5D 82 99 CB 44 D2 2B DA 87 34 CB 4E A3 2F 20
 A3 FF B4 63 48 34 EB 0C A5 3F 29 2A 99 7D 8B EF
 7B 14 81 A9 8A 6A 60 AD F7 52 C8 B7 24 E9 99 2E
 61 A1 53 A6 1B 99 51 67 55 64 66 2E AD AE 11 6D
 7F 23 8A 3B F4 55 18 B8 4B 89 79 E5 8A 1C CB 67
 08 55 84 0E 70 87 20 91 A5 A4 CB BA 8F 7A 9F 83
 F5 E0 E0 55 8E 80 FC 27 9F 55 B1 78 B6 CA 01 3D
 86 6E 4C D6 DB 5F 52 72 C3 39 51 5E D4 08 D2 E1
 0E 67 D6 38 08 0E 0C 05 B8 61 A2 E3 9D E5 CE CC
 63 0D 98 F8 91 37 52 08 EA 0E B4 ED 01 64 C1 28
 FF 2B 8D 54 45 20 F2 36 28 E8 14 3D 2E 21 A3 33
 FA 5B A8 04 3F 44 B3 6D 75 4A 1B A7 A4 80 5B 7A
 DF 63 95 19 2F 30 15 6E 88 42 FC 79 45 D1 73 D6
 A7 7E 8B 3F 34 A7 1D 0D 27 FB 48 45 66 47 A1 E1
 37 55 C2 B9 EE 59 D9 C0 FD BE 03 1C 67 65 0F BF
 EB 9E 14 9C 88 49 13 CB 2E 96 21 9D 38 49 42 6E
 C5 D4 F6 4B 58 94 E4 5E 65 86 63 D4 2D AD 1B DD
 48 EF 1C 55 B8 75 D9 A9 43 46 20 A2 E8 75 8C 67
 0A 1D E7 D9 0F 10 C3 22 A6 0E 75 DA 4E EA 85 50
 16 5A 71 A0 85 72 6C 40 31 54 6B 91 FD 80 DA 47
 5B AD D6 E5 62 12 03 B4 4C B3 4F 67 8F 53 8C FB
 33 6D 0A 82 20 73 EB 78 71 E6 FF 4E 3C A5 BE F0
 AE AB FC 68 F9 F4 2E 18 CC 47 E8 74 5A F5 BB B7
 A9 0F 5C 0F E1 FF 61 1A 18 CB 42 F8 CA B7 D5 79
 9B B1 5B 88 F5 BB 33 36 56 D5 1A E6 06 FD 05 91
 72 C5 A2 E5 BE A7 70 25 07 00 E6 D3 72 1E 5E BE
 9D B0 65 12 80 0A 5F 85 59 F9 7F 75 15 ED A0 04
 5B EA 18 57 EF 6A EF DE AD 47 C2 F3 5E 13 DB BC
 03 B8 71 B6 2A D5 9A 7C 8E 38 98 B8 1C E9 EE 97
 E6 89 07 52 C6 DD 19 44 53 26 5D 0D FD 8D C0 00
 CD 5E 9D DF 1A C6 46 68 57 CE 56 29 09 51 E6 EF
 E7 53 8A 8A 67 46 4A C0 27 89 09 EC D6 71 6B FA
 D3 0A C4 4A 46 68 4F 9D 7C 29 29 83 12 13 97 8F
 47 88 67 87 67 DD 33 5A CD AA 5E 66 DF BE F4 2B
 83 99 1A 0E CF 40 0A A0 0D FD 97 85 C5 19 DE F8
 60 DE 01 2C 58 AF DE 0B D1 20 02 F5 D6 E4 C3 4A
 E2 62 99 2D 5E EE E3 FA 38 CA 12 2C 21 00 B7 3F
 0A C3 81 E2 76 CA 37 6E 90 0F D6 8C 3B F0 7A EB
 1E 38 0D 39 B6 2A 44 78 00 E2 76 2D D6 ED 3E 07
 54 8F C2 BB 5A 04 E7 08 47 EE 42 5D 95 79 6D 5D
 53 80 F3 50 4A FD 78 CE 29 70 16 BD 1C 59 16 03
 A8 41 13 F8 81 89 E4 45 29 1F C1 DF 5A 43 A4 CA
 04 69 08 25 AF 8E 22 D0 D1 F4 FB 64 A5 79 62 D2
 37 01 C6 09 F5 20 F5 51 71 AC 2B ED D8 BF 76 9A
 22 64 2A 74 60 41 B5 E9 FF D5 34 9C C9 13 86 24
 79 1F F3 BB 4D F7 93 F0 CF 5C 99 1E E4 8A 8C 4F
 31 F6 DC E2 5E CC D8 0D CD F4 78 F2 15 F6 F7 6E
 5B B4 38 9C FA 97 E8 37 71 70 E2 35 48 3D 55 F1
 C0 CB 6A 26 F1 4F C7 6A 1F 50 2F C9 EB B6 00 FA
 A8 61 D7 98 97 C7 97 5E E9 86 94 63 CE FC 07 C9
 40 3E 3F AB 4A D7 03 89 21 02 0E 0B 61 6A 5E 92
 86 19 41 BF 60 9B 73 8F 06 D5 DD 40 FE 6F 0B 83
 65 8E F5 2E A2 51 D4 49 F5 0C 25 9A 57 79 B1 D7
 05 00 25 A7 74 34 83 CA 2A 7D C0 A3 E1 B3 39 71
 CD E9 D0 E2 69 B8 1C 96 3A B1 0B 67 2E 0B AC 0F
 6B CC 3B 89 10 06 C0 7C AF CC 30 9E 16 6A 6F B9
 49 28 FE 4A EF 30 C4 96 53 D6 2D 5F 86 0B 62 04
 4A AC 6B 86 2A AE D6 63 B9 C0 CB BE 36 37 35 A1
 B9 C1 E8 7D 71 22 3E 01 39 79 A5 79 37 9A 70 42
 7B EB 97 1F 1A B2 CA E4 1F CB E2 2C E9 78 8D BC
 14 AA 35 72 CB C6 A2 8D 31 8C D3 79 EC 4E 2A A6
 2F 20 2C 37 CA FB 82 B8 65 71 EA CE 98 67 69 B7
 40 0F D6 8B 6B 2A 4E B4 20 68 1B 3E BF F6 C7 1C
 28 10 44 82 0A 9A 81 69 1E DE F1 C0 03 6C 23 2C
 87 99 E8 0B 3A CE 64 D4 02 FF 9B 26 02 A0 35 4A
 D8 2C 31 51 FC EC B4 56 06 34 A6 F7 0F 73 EE B5
 6C 87 D7 44 1B EA 3B 28 3C 76 D5 9A 7C 13 45 44
 56 63 C0 E4 4E B2 79 40 AA 06 46 6C 65 32 76 B0
 FA 03 59 97 3B AE 32 78 E4 6F 9C 5F 07 9F A0 BF
 76 99 83 08 C9 D7 B4 A2 31 05 0E 53 52 5C 85 3B
 88 54 23 BA EC F4 9E 01 5B 34 D2 2D B4 81 86 40
 00 CE 11 06 75 26 AF 6E 78 52 35 35 4D B7 6F 3F
 DA 84 C8 D4 86 8C 4B F7 4E 2D 75 4D A2 1D 5E F8
 4E 43 3E 14 0F 4D EC 25 3A B5 E9 71 A5 F2 47 48
 27 E0 93 01 C0 08 B1 DB 08 3A 82 10 83 97 3B F1
 B1 D1 F9 78 AE 64 04 32 52 44 B1 74 BC 07 AB 4A
 48 68 4B 4A 36 93 D1 2A 89 C1 BE 4D F9 21 5D FA
 BA 32 DF 4C 88 AD 69 25 77 93 B6 F3 B9 9F 3A 82
 81 E0 E4 14 A2 6A C4 0F 6D 67 51 DD 7D 87 F2 E7
 0A F7 37 F3 78 27 18 58 84 76 CC 21 28 11 F6 63
 07 14 22 90 91 FC 03 31 13 C4 68 BF 20 06 ED C8
 3C 9F E1 D0 D1 49 76 5F 68 9B A1 2A 19 B2 7D 1F
* End 341705203 2612293386