* LTspice Encrypted File
* 
* This encrypted file has been supplied by a 3rd
* party vendor that does not wish to publicize
* the technology used to implement this library.
* 
* Permission is granted to use this file for
* simulations but not to reverse engineer its
* contents.
* 
* Begin:
 4F AB 32 93 D2 27 68 DD 07 73 AE 30 CC FC 8C 2E
 EA BA F9 0C 69 5D 5A 32 7B ED 33 CE A3 84 E1 7C
 1C F6 2D AC D2 01 68 5A F3 A6 1C 00 FF 09 F3 03
 B6 E6 BE C8 E5 AB 41 0D FD 1C 3C 9E 14 01 F6 C0
 13 F8 84 9E 6D 13 D9 6F FD E5 FB 07 C0 B8 1C F0
 53 50 A7 61 EF B1 F7 6D B8 65 61 F4 AF A2 B3 4B
 7B 04 D3 49 5A 0A 72 D8 88 1F 0C 05 99 8C 98 65
 CB 44 AE 3F 0E 96 FB 0E 24 C3 9D 37 26 63 97 F2
 B7 13 AD 1A AF C1 B8 C9 C4 67 0E 3B 11 15 96 BB
 EC 9F C7 09 D4 4A E9 F6 B4 01 1F 63 88 9C 5C 8F
 80 0B EA 89 70 E5 7C 30 E6 82 6E A4 08 32 21 02
 78 08 AC 3C 19 12 DA 00 B6 88 4A 19 CF B9 70 04
 A0 17 19 47 68 7E C2 7B 01 B1 F9 9B D3 02 C0 4A
 41 03 AC 8B 9A D7 62 5F 48 3E 11 D1 C6 E0 B3 2B
 1C 63 59 6E 42 EF 0C B8 56 19 59 C7 CD 51 AD 04
 09 CC 76 7F 40 D5 DD E6 05 A9 ED 04 9C FE 20 D7
 90 96 4D 3A 84 A2 8B C8 9E BF 79 87 1D 2C 8F F0
 F4 88 7D DA D9 3C BF DD 94 67 FA 31 E9 06 2A C7
 0A 4A 24 53 3A 3F BC 57 C7 86 F9 AB 03 19 7A AC
 87 53 25 23 F8 02 3C 6C EB D5 08 76 44 B9 EA DB
 87 37 05 19 DB AB D3 D4 62 93 57 D2 EC C5 C7 31
 C5 87 9E 33 6D 16 CF FF 1F 56 71 8B AA 4A F2 79
 D5 6E 23 10 55 F4 71 73 9C 2F EA AF B1 FF 34 2D
 0E 3B A5 E3 71 32 0E C0 05 97 B0 91 C6 07 8A 9E
 86 4E 06 AD 71 52 B2 E8 61 9D 20 B2 BF F9 B1 1F
 2E DC 6A 19 72 CA FB 3A 51 26 9A 56 FB 99 B7 00
 26 B1 2D A6 A1 10 02 1F 74 33 1A 21 DF B8 8D CB
 67 42 EA 2E 29 AB 32 26 B1 96 E7 13 6F 56 FD 90
 C4 45 CE B0 4A 82 10 58 AC 2C BF ED 2E B0 1E 45
 EB 34 45 74 FA DE 51 74 B4 F8 DA C0 2E 1F 5A F8
 6A 80 97 01 8B 8F 45 A5 DE C1 1F 35 0E 9B 69 17
 62 5F 45 F2 C9 5F 0E 85 60 B1 36 D5 C2 34 E6 C5
 6A F9 49 9F 07 F8 F0 72 8F EA 80 2A 38 E1 72 92
 55 6C 38 12 61 39 51 48 AD F6 E2 CC 36 A2 40 C9
 12 AF 71 6D 00 BF 2B 48 16 9F 91 43 EE D4 6E 1F
 30 5C B9 72 95 26 80 1D 80 00 54 0A 4A 9D BB 64
 A2 89 92 77 2A C0 FB 93 9C 69 68 4E 4A 44 F5 1D
 70 53 3B 1A D4 18 80 1D 13 92 A0 4E 5D 59 29 D6
 CA EF CE 77 AD 83 93 46 D5 A4 53 78 79 2F E6 B0
 A2 96 3E F7 42 ED B8 14 DC 29 19 3A 11 58 62 B1
 58 AC 3D A4 5A 2D CF FB B8 C1 22 51 72 34 8F A0
 54 9B 09 AF 3E E4 29 AD FF B6 0B 9F B6 A8 EA E9
 D4 41 BB 85 85 78 48 77 EB 4B 8C 82 2A AC A2 DF
 C5 08 82 16 32 37 DA 61 C5 B9 8B AB 10 B5 F9 63
 48 D2 94 3F 89 59 25 43 C1 5D 4A A4 49 07 CF DA
 26 56 4A 11 67 28 C0 7D B9 2C 97 B3 A0 A6 1F F8
 3B 87 E0 51 F9 3A AF 2D 65 7F 73 FC DC 9C 59 9B
 3A 0D 0C 52 93 B6 87 B4 C8 B7 70 19 4E B3 0D CC
 07 BF 75 C4 E5 C1 CB A6 59 DA 88 28 B2 BF 89 E5
 4B CF 71 37 FD 31 33 4C 93 A4 84 3D 53 0D 4B B2
 D2 F1 67 CA 28 A2 40 49 4B 90 40 D2 DF 89 0C 7B
 0F C2 67 49 8C AB 55 91 96 A1 A6 A1 31 B6 F3 77
 86 CB 06 14 47 26 B1 DE 82 4C 7D F3 60 86 5B 81
 7C F8 52 92 6D FF 80 63 93 C3 43 DB 5F 06 18 5F
 19 96 C4 32 0B E9 1F 07 01 BC 1A 64 95 A1 7E 2E
 D9 1B FE 3D 08 71 FE B4 98 BC DB F1 4F CE D0 F6
 DC 10 86 EF FA 01 31 0B CB 2B 59 6C CF 5C EC AE
 A8 4C C3 6A 86 BA AD 44 FA 5C 45 2C 15 A4 23 2C
 EE 85 27 D7 74 3B CA 65 D5 D1 5B 76 D7 60 9E 7F
 EA 9F 03 E3 92 68 EC AC 47 F6 F5 30 B7 90 49 B7
 BD 64 98 18 96 9F FD 9B 52 AA CE 0C FE E1 25 78
 6D 13 0D 82 F7 94 12 88 DC 8D 8A 73 39 66 E0 88
 F0 54 D6 A7 14 75 47 7F 62 B7 A1 08 96 4D 85 1A
 27 C8 25 49 98 2B 84 21 D7 E9 49 39 45 95 39 B2
 22 F4 A2 E6 AF E5 E2 CD 57 BA CD BD A0 BF 6A 1C
 4B BB 26 81 71 EB 6F C3 13 3E 89 82 64 B8 87 16
 20 26 03 40 2B 27 E1 09 7F 8E B3 AE 3F 77 31 C3
 9A 69 0C 29 03 C9 A1 E2 56 ED 89 B8 11 84 E3 4E
 7A AD 8D A9 EE 84 92 76 3D 4B 07 1E 74 77 EF D6
 77 7D DB 86 B1 8C 15 E8 C0 ED 22 72 D6 78 EE 35
 31 BC 86 15 A5 AE F1 6E F2 CE BC B5 D4 E4 9C 36
 F3 32 D9 6C 6E C7 B1 6C 07 53 18 ED CE 4C CB 32
 05 8E 33 B3 13 DE 7A 2D BA 3A 66 EC 4A FC 27 E2
 D6 05 1B CC DA 53 AE C0 2A F8 C2 66 02 5F FE 67
 FE C9 6C CE DC 8E 72 59 96 75 86 74 51 80 9D D1
 0B E1 CF E6 3D A4 2A 0E BF A0 8E F1 05 0F CE 0A
 FA 0E 67 FA DB DB 55 58 5E F8 D7 68 BF E0 BE 15
 41 4A 11 DE 1A 8F 28 ED 62 20 63 A2 F0 43 8C 60
 0C D8 E4 80 2A B6 96 9B 2A 0F F1 71 E2 E6 49 44
 AD 9E 39 DE 79 DA 1B 14 C6 F9 F6 9A 68 0F 15 57
 93 4F D6 47 9B 62 8D B1 F1 9A 33 D8 5B 7E 7C 65
 FA 62 DE E6 7D 0B 51 89 F8 0A ED A1 59 C1 73 4F
 F5 07 38 6E 8E D5 1A 62 86 4C C1 DF 20 2A 75 F2
 19 D6 C1 6E 25 83 F1 44 04 2A B8 FA C5 16 88 80
 58 27 8F 1C 62 10 80 38 66 44 48 99 CD FE C2 6E
 4F 3F 0A 33 E1 9E A0 3A D6 86 8C 40 E3 4E C9 F3
 E9 58 B2 6B 12 37 F4 F1 4E 19 C1 09 B8 4E 5A FD
 06 0A 49 95 D5 27 2F 12 1D E3 58 EB 96 89 70 EC
 22 CD 1A FE 39 D6 67 64 2F 3D DD 4D 31 67 1B 61
 9E 89 B4 7E F0 EF E3 47 EF A6 C3 FE F8 A6 20 B9
 AA 72 99 EC AD 39 43 DB 7C 7F EA C8 51 2B 53 BF
 67 8B C3 BD D9 2A B1 7D AC B0 E6 5E 30 C2 12 05
 CE 86 6B FE 03 48 FD 0C 4B 55 F7 8A B8 3C 8B 2F
 8C 2B D5 65 E9 40 F7 D2 48 2F 06 F8 DD 60 0D 68
 26 08 A0 6B 54 BE 59 83 15 4D 1A 57 B5 84 48 0D
 3F 00 6F 34 32 10 2F 59 2F C7 46 13 EF 7D 99 34
 1E 48 EE CC D0 3E 7B A8 71 9D AD 93 A8 D3 1D 09
 13 B5 98 5B DF FC E6 B7 52 B8 D7 29 33 B3 51 91
 9F 57 21 CF 2B 5F 6A 3F D5 81 16 5B 29 D7 2A 33
 07 70 63 C4 95 81 18 C2 A1 8D 08 F9 5D 6D FA C0
 01 7D 66 86 F7 7A C3 BA 13 10 FA 8A A8 F3 33 AA
 CB 33 D9 F2 41 60 13 66 69 B8 84 95 CE DF 0B CE
 04 38 52 FA DD C9 64 2C 3F 0D 13 18 13 B0 0B 38
 0A CF 92 B1 63 14 C1 D9 32 7B 9E 44 F5 3E C4 D7
 1A D4 3D 81 99 C5 F5 C1 EC FD 62 62 D6 0A 38 7A
 BA FD A0 69 43 34 41 30 A6 E5 07 3E E0 A5 56 0F
 89 EC 4E 40 E7 F4 DE 68 82 9C 1A B2 0D E3 BA 4C
 75 29 30 EA 82 23 7A 2F AF 29 C9 33 6B B3 BE C0
 36 DD 64 2C A2 02 88 12 D7 42 DB CF 06 59 B4 39
 71 D0 86 05 16 A9 9B 2E 08 A6 0C 6B E5 B2 84 03
 9C 72 42 10 E0 62 86 35 2C D3 06 45 1E D9 B0 14
 DE 29 92 7E 43 7C 73 82 10 6E 35 7D 1E 10 D0 1F
 90 40 D8 63 07 9F 5A 4C E8 48 EB 13 A9 4C A0 77
 01 45 5A A8 27 86 F8 40 B6 9C C5 F5 68 CC EF 3D
 53 E8 52 89 0B 4C D6 33 7C 1A 72 EA F7 3A 72 76
 05 4B D9 C7 C3 9B 77 AF D0 E2 A8 5D D1 89 BF 0D
 0A 50 4C FB 51 A8 F2 07 F6 AE 0C 8E BF 48 AB 0A
 1E A8 37 10 48 E6 4D 11 5A 5B C5 AF 08 14 DC 70
 65 45 31 6E 6D F4 94 9C 46 95 EC 58 01 15 32 1F
 73 BB C7 DF B2 03 52 98 10 12 EE 5D AD E2 0D 26
 38 72 30 51 04 71 21 83 A8 06 03 8F 3F 15 75 E9
 DD 8F 69 9F 09 C6 65 CA 86 4F B9 48 4F 11 BE 3D
 E4 CC 97 D0 71 76 8B A6 34 E7 BC EF 6F 99 0C 1D
 91 41 62 E1 F2 D0 FB 9A 96 DD CA EA 88 B7 51 6B
 36 9B F5 34 D1 91 D9 46 6F 0F 78 93 63 C1 58 28
 F0 3B D0 14 F6 DF C2 FA E9 7F 2D 6D 22 E8 83 07
 14 A7 C3 CC 51 8D 89 E6 AD 1D 2F A8 79 4D CA BF
 76 AD 1C 25 06 2B 90 21 94 FC D6 0C 7C C2 1A A2
 CB 72 01 22 3C 7F 12 C4 90 74 19 50 9E EA 80 3C
 4B 7A 82 42 58 13 14 C4 CA 0C 3B 6E B2 34 08 31
 40 24 0C 0D 3B 74 C4 AF EE 36 D0 39 23 D4 4C BA
 4A 41 76 4C 90 40 0B D3 F1 F3 09 39 7B 9D DF 57
 4E 6E A5 6E AB AF 15 9C FB 07 01 8A EE 7E CC 5A
 AC E2 0F 11 58 80 91 F8 C2 3E 5E 72 00 8A 46 EB
 B3 19 95 38 43 FD 93 3A 51 D6 31 15 67 67 D9 F2
 69 C1 B1 DE E8 C4 52 0A 7B 9A EF 25 26 58 B8 2D
 D8 4A 55 9C 31 F3 B6 1D F7 D7 D4 E3 0F 13 CB 79
 29 60 85 62 B6 BE 04 B9 29 7B 77 BD 5C 61 02 F3
 D4 F9 9C 0E 1D 75 8A 18 ED F7 00 71 52 76 3E C3
 FD C7 8B 41 75 01 6E E1 06 67 B1 DD D4 33 1E EC
 BD 04 8B 61 F2 70 AA D4 D0 BF F1 44 D6 49 7E C2
 97 21 49 0D CA 8D 6F CE A8 06 D1 31 56 93 BE 2E
 39 9E 6F 2C 7E 22 6F 2B 2E 4A E0 A8 81 56 14 E8
 84 47 D0 D7 41 93 93 D6 B3 5B 10 0B BF C2 3A 5F
 64 20 93 DB B9 AB 7C 66 52 85 85 AC 9E B0 A1 DF
 18 7C E7 92 6F B3 6E 68 27 30 63 EE ED AA 01 CE
 9F BC 13 48 8B 4F BE A3 C0 96 07 88 7A 28 B6 D6
 BC 19 9F 09 5C DA E4 93 D7 0F B8 E9 2E 3A 0B AB
 7E EB AC 0E 94 C6 19 53 1F AA D4 51 1C BA 4C A6
 DB 60 FA 29 81 8A 1E C9 D6 4F 91 FD B7 31 4C 4A
 10 21 42 7F 30 DD 70 16 03 C7 AB B3 52 C3 F5 8B
 F3 A5 95 2A 84 FF CD 61 D3 59 89 A8 14 60 D1 9A
 69 EB 40 49 2A 14 26 8B 1C 54 A1 FB 82 9E 57 81
 A9 52 2E 37 04 62 57 DA 51 10 C9 3E 88 17 AA C0
 05 0D D2 BC E5 E1 AE D0 61 9E F6 0C 61 16 D0 3D
 C1 35 08 66 66 E9 BF ED 9E 7C B3 C1 5B 3A 76 2D
 DA 49 54 A1 5E 62 A6 63 FA F9 39 6F 6A 30 D8 3F
 44 09 8C 4E 8A 95 2E D8 2E 09 5C C8 CE 38 62 7B
 EA 00 36 33 EE 06 68 24 10 F1 04 BF EF 6F E3 D3
 D6 0D 3D FA 3D 25 4B 00 FF 82 6D BD 9F E6 5A 87
 D6 31 76 5D 3D 11 B5 FB 9F 55 5D 83 A2 BB E7 2C
 1B 01 64 CE 5C 99 B4 08 DA 24 8A BF 7D 39 48 EA
 85 44 27 56 AD 4E B3 7B DA 3D B4 7A 78 19 60 CB
 D9 66 4C 45 CA AD 7F 6B D2 CD C7 B7 7D 8D C9 55
 78 7C 5F F9 AA 4B 04 E3 7A 32 91 B2 81 5B D8 8F
 9E BD 7E 2C 87 25 60 4E 7D A3 BE 14 66 A1 E1 6F
 E1 F5 DB BE D7 66 3F 49 36 14 E7 95 50 EE F5 8D
 55 E8 88 20 83 63 77 10 88 3C 65 29 64 2C 1F D2
 4E 26 E8 DF 2A 08 42 72 B4 E2 20 B4 43 CC 59 F5
 F7 6E 28 4E F8 EB 5E BA 26 15 A5 AC 85 87 BB D9
 E4 F6 BD 86 9B BA 5E FC 82 2B 82 FA BC 79 6F 64
 36 F8 E2 EF 9B 73 10 86 C5 B1 64 86 4E 24 AF 11
 E0 87 B6 E3 DD E2 C2 F6 E1 61 96 FE 3B A2 90 FB
 30 7C 76 AA 11 2F 6E 23 AE AE 63 C7 A7 07 93 62
 F9 BA C7 AD 99 9A D5 AA 9A 49 64 E9 E9 F6 18 2E
 BE 64 F4 E6 8E 9C 40 86 CD D2 BC 1A 03 43 CA 81
 B3 A6 39 2D EA E5 CB 55 C1 02 D2 A2 AE 4E DB 67
 C0 F2 34 48 D3 1C 69 6D 44 15 65 C3 8B 73 17 F5
 C2 D9 2C 1C 39 D4 AE 19 35 95 AE 8B BF E2 45 62
 65 2D BB 72 78 2D 50 80 09 53 86 98 B0 05 77 9B
 1C 3C 59 73 3A 1A A1 66 F0 48 70 38 22 C3 71 F8
 E2 24 BA 20 F0 54 15 1F BB F9 71 DB 77 5C B8 C5
 FC AB F7 3C 93 41 4D 5B 7B D4 12 6E 7D 0D CC 41
 64 06 0B F5 4D 2D 58 C4 2C 78 11 B1 89 7F CD D6
 A8 3A D7 60 D4 6C D5 14 2B 40 88 36 B8 5D 9E C7
 B2 99 AE 9E 3B D1 0D C7 17 A8 12 13 95 85 B4 F5
 2E F5 CF 76 FB D3 F8 6F B3 D9 1A 91 E4 D7 C2 1A
 1C D8 5F 0D 81 38 4B 67 DF 54 F4 85 94 2A CC D7
 02 F2 69 71 F5 71 78 73 B9 11 77 47 61 31 74 F2
 02 05 73 5B AE B4 59 07 DF EB 53 A4 6A 29 83 8A
 25 DF 1A 9B E6 6A DD 70 52 CF F5 8A B1 59 11 35
 59 90 89 FA 31 B5 B7 1A CF CE 82 EA 26 8C A0 70
 E6 F5 96 78 2B BA 7C 34 CE 56 8A 4B 04 F2 BF D2
 D2 58 63 26 38 6D 8D 5E 96 96 86 D0 D4 6A 33 24
 BD A0 46 07 D5 6A 25 AF B2 8B D3 88 2D 3B C8 AE
 8C B6 1F A8 2F FE D5 72 77 EF 83 A3 4E 8C 2A F1
 7F 28 10 E0 C7 D9 38 52 74 89 F3 A9 01 52 B1 FD
 18 D9 29 39 E3 95 A3 A2 2C A9 EB E8 01 FB 4F A1
 1B CE 0E F6 43 74 D1 74 37 8A DD 01 D4 3D 3E E9
 9B 9A B1 BF 0C 75 71 29 F7 37 0C 47 7D A0 D0 49
 7A 7A 55 D9 D6 69 86 96 35 30 E0 B3 75 9B 7B 8C
 71 31 94 60 8E E0 F2 39 0E 04 58 FA B1 01 DD 8B
 B7 89 FD B6 E1 78 39 15 04 4C FB 95 20 33 5B B6
 F8 EB 41 D5 0F 2A A9 CD FE BA 85 CA 19 63 E0 7E
 D7 91 35 FD 03 90 40 65 60 E1 6B 2F 4A B6 06 41
 A5 88 E8 DD DA 85 83 9C C0 4E 73 6A 74 19 F2 13
 D4 FF 11 7B D1 AB E3 F6 60 A3 38 85 C5 C9 46 6A
 69 E7 AB F7 21 C8 A0 42 01 44 8B 48 A1 15 80 D9
 B6 81 5A 03 60 32 D4 7E AA 07 7D E5 38 10 62 0C
 B5 58 C5 B4 F3 29 F3 68 CD 59 31 02 E1 32 F0 81
 1C 3E CE BE EE 27 DC 3A BD C6 7C 13 39 86 AC 96
 1A 03 23 1D 8C 19 5A 51 B2 16 E3 FB 7B 09 E0 18
 B7 1A 01 C4 19 97 A9 9F D2 71 45 3D 2D F1 DD C2
 32 B9 9E D1 0B 2D DD CC 41 96 00 99 0F C2 86 96
 D5 03 50 13 0B 2E 18 4F 47 FE 2E C9 D1 C8 ED 87
 E0 D8 90 D5 3E F7 79 5B C3 3D 08 9A 79 81 9E 29
 52 8C F2 0C 08 1C 47 03 49 3E C7 83 EF 2E FA EB
 B7 6B 6A 67 64 99 B9 99 78 00 33 65 B5 F5 81 D8
 E4 A2 FD D8 E7 B5 0F 27 F0 9A EB E2 E1 F1 76 00
 E3 50 61 BD 60 12 25 41 60 11 8C 29 B4 E8 07 87
 5E EE DF CE A2 9B 47 71 04 55 9B 0A 60 04 83 5A
 6D 0A 3A 35 F4 E1 98 35 58 32 18 10 46 31 74 66
 C9 10 B1 85 C8 D1 FA 7F 7E A7 B9 5A 3A 56 1B 14
 7F 4E 80 43 F8 31 D5 12 60 FD F0 62 D1 48 3C 45
 65 C8 E4 84 36 67 1F DE 91 8B 51 82 63 6D 3F 8F
 91 D2 5A 61 B4 49 19 17 A0 6E 70 32 F8 BC FD AD
 30 76 5C C9 6A ED 43 95 6F 63 72 AB 16 22 1E CC
 C8 34 68 5D 3D B0 7C D4 25 D0 C1 4D EA 8B 15 4D
 35 CE E8 BF 02 59 3E 53 C7 7E E7 E3 BC EE FA 37
 20 A6 89 2C FF 6D 39 B4 FD D7 8A D2 D2 48 A9 44
 5A 34 24 C8 B5 B7 1D C6 A9 CA F3 44 E3 D1 1D 0D
 A3 2A 40 53 FF AD F3 D0 29 4F C2 E4 BF 35 94 A1
 6D 1C E2 D6 85 95 4B ED 40 51 3B D9 A8 9E 3F 99
 48 91 91 0F 68 B7 6E 21 E5 E5 72 3B 6A 39 E4 19
 E4 B7 4D 17 01 F6 1A 52 41 03 B6 84 6C 6C 2F 67
 2F 69 64 BD DB 8B 26 44 04 0D 74 86 DA 2C E3 A6
 D9 B8 05 2C 27 DC E7 4D EB 9A D1 75 55 1D FA A2
 AF 66 13 DB B1 65 D8 C6 20 B1 4E 76 16 1A 08 AE
 6A 3D 1C C8 DE 5B 8D 76 0D 90 C8 54 2C 63 6C 9E
 98 E9 05 84 9C 9F 58 92 43 75 C0 A5 B7 C6 40 F1
 65 C4 B0 94 2C A3 90 71 25 9D 38 7D FD 66 C0 9A
 CD 77 90 56 20 32 89 D8 54 7A FC D7 A6 6F 36 F8
 F6 03 9A 88 AA E6 1C 57 F6 92 E5 A2 64 D5 E5 58
 4E 62 BD CC EE CE F8 77 21 EA BC 09 5E 47 FE F2
 54 54 D5 51 EE 9A 3E EA DB 58 54 09 6C F7 91 AA
 C2 ED E5 90 97 04 E2 B0 0B 01 46 B3 FC 71 59 F1
 72 78 21 C4 C0 11 53 15 A5 76 B6 90 2D 69 F0 66
 D3 A5 CA BA 2D 05 33 EA F1 B2 8D 85 F5 F3 E6 E2
 C6 19 94 13 FC 2B BF 91 67 E4 2D BC A0 97 FB A7
 F3 10 1B D6 35 12 E6 6C F7 7E 85 88 C5 F5 FA 7A
 66 AF F7 33 6A AC E7 CF A4 DC EC AD F1 D9 41 D9
 B6 15 04 06 F4 8E 60 BF FA 81 3A 1A DD 01 01 7D
 D1 D4 D6 3E 0C 5E 63 EF C0 F2 35 C3 8B 08 7E 2F
 5C 8F 67 51 92 AC 87 25 E7 F8 65 5B 87 06 E9 C4
 B4 51 E8 A5 DC 59 CE A3 2F 6D CF 00 61 37 60 22
 82 A6 10 54 E8 99 F6 E6 86 5C F2 87 16 C5 F0 2A
 D3 A0 50 B8 62 91 AE 95 A7 96 61 AA 71 7F F4 6D
 A7 6D C0 AE EB E6 23 C5 AF B2 5B 97 2D 9E 1A 36
 E2 08 9E 15 0B EF C7 B1 E2 54 63 F6 1F C9 FC 8B
 DE C4 F8 CE AD 8D 0B 81 74 B9 D4 1A EF 1C 5B F6
 27 7B 80 1C DD EB E9 2F 7D 5E 13 90 DA B6 F8 61
 FE 13 A3 7D C2 FF 47 92 44 8F 4C 41 39 1A F1 0B
 7F D6 69 EA 5C B2 14 BF 01 D0 6C 2E D6 44 DD E1
 65 EF 05 F8 EF E9 5E 94 08 56 AA 59 F9 DD 5F 3A
 17 0D 54 50 E0 99 D7 51 C4 4E A5 E1 D0 1E 5A EE
 4C 5E 02 69 27 5C B2 0B AC 11 8A 87 29 AD D1 40
 CD E7 EC 99 D4 42 6E 85 42 4A 88 EE 2E BE A7 4D
 87 1C EF 10 7B 5C C6 99 2E F6 78 4E 46 0E FF 9C
 E6 88 7B B5 BB 80 61 20 DB A2 C3 C5 8D 1D 3C 7D
 E6 C7 CA DB D6 DB D6 FD 55 0D 52 06 E3 4E B2 73
 84 05 4D 58 79 83 FE B9 CF 7F 88 19 00 7B 45 4C
 51 5C CB A5 05 82 CF F2 98 EA 40 59 F3 41 2C 20
 5A 60 EC 13 AB D5 80 75 52 2E F2 1E 36 56 CA 66
 6F 25 E0 D3 07 93 1B 7E 8A F9 CF 04 59 9B E7 E8
 B2 C1 3D FA 26 6E 86 95 9B 99 A5 DC B1 1D EF B8
 B6 A7 80 C6 E8 5C BA D1 7A 4E DF 73 E7 6F 89 5D
 DA 35 6D FE FC 61 DC 0F 47 A2 0B DB 3D 6A 5B 2C
 4A BB AC 69 12 9F 00 70 2D 37 1B EE 09 E9 C4 3F
 67 FF 39 7C CF E7 B1 4D 33 1B 91 3D 17 82 46 80
 66 33 F8 F9 4C 5F ED F6 13 A6 57 C6 13 E5 10 4A
 BE D9 CF 15 14 90 55 FB FD 9B 7C 40 4E 7D 93 C1
 69 4A 73 D2 F0 F4 D5 8C 6F C8 24 A6 58 49 55 FA
 1D 63 E4 0A 7E A9 E7 8F E9 4E 02 0A 08 84 E1 4A
 3B 48 8A 7E 3C AE E8 8F 9F 24 A6 B1 7B DB 22 CB
 5E 03 89 7F 9A 7A 4D FA 91 32 4F 4C C7 43 63 B5
 8C C4 F8 18 6E D2 89 2A 1C E1 16 26 4E 11 46 D5
 14 EF 4E 62 E2 E3 F4 EB C0 8F CD E9 D2 2A 24 6F
 23 15 2B 9E AD D3 7A 4D 43 6D 40 F7 F2 E2 3A 55
 22 12 A4 E9 89 CB EF EC 31 C6 0B 74 2B 90 D3 5B
 8D E0 28 8F F4 ED 59 64 CF B5 45 E6 24 4E 27 86
 2C AC A0 1F 24 84 BD 61 D4 2A 5C 44 CE 27 4E F0
 91 64 49 25 15 2B 7F 99 41 AE 53 97 B8 10 31 84
 DF 51 CD B3 BC DA 61 18 DA 89 C9 78 D5 25 01 FF
 15 53 F6 FA 60 6F 6E EC DF 3B E3 41 63 39 51 F5
 C2 99 29 0C A3 B1 EF 56 37 47 54 0F 89 5F 8A 94
 A0 86 F7 10 AB 0F 39 05 F8 47 15 30 88 EF ED 84
 2C 1F 3F CB EF FD AA 7A B3 CC 35 30 A9 00 41 BB
 36 FB AD F2 CC C3 87 1C 9E D0 B8 F8 A1 5F 00 82
 9B 97 72 F4 A4 86 87 0C 95 5C 33 C9 F0 7B 84 20
 5C 9E 87 90 E8 E4 7D AF 9C D9 F6 EF EA 51 D9 88
 D5 5B A4 E8 9F 5E 84 EF C0 E2 5D 80 FB 6B 66 8A
 D7 AA 8A FF F4 A9 75 AF BC 4D 8E B6 8B 66 03 5F
 C4 C1 B0 92 0E FC 8D FC 10 67 D4 31 6C D5 0A C9
 86 04 74 B9 FC DF 0C 38 E7 56 F9 DC C1 C2 C9 87
 E9 12 98 36 33 3C 95 E5 9B EC 75 79 2B 1E 20 54
 8D 4C F7 FA 24 42 15 15 D8 62 57 0A 65 E6 4E BD
 D0 9D 01 E7 53 28 D3 2D 61 1D 1F 13 AE 9C AB 85
 0E 5C E6 DE 1E 6A 20 59 2C 8B 34 B2 B7 13 35 E1
 E0 38 AA B4 84 08 DD 3E 83 27 71 45 CF BE 2F 9A
 23 29 C7 30 5B EB 01 8C 7E C1 AF BF 9D AA BA 53
 F6 33 DA 91 3A 27 E4 DB C6 95 66 AA 56 78 AB 6C
 DF 35 51 81 EB 27 D8 A0 0F 12 BA D1 0D C3 57 60
 56 65 F2 2F DD 55 C3 CF 42 8B 25 E8 5E 25 EC D8
 F0 91 A6 B9 44 68 80 8C E0 6E 43 7D C1 E8 21 E4
 EF B1 C4 EA A7 EC 24 FA 9B B2 67 54 5D C3 D6 DC
 27 3B 7D 1A 0E 02 6B A6 DA 12 C3 75 0A F3 73 DE
 E4 02 BF 8A 04 FE 3C A0 60 34 9C 19 68 17 94 EC
 7C E4 BB 76 E1 15 34 72 A1 0D 5D 17 48 03 D9 72
 24 76 6C 97 9E 5A B1 24 90 F1 F2 AE BF A3 E8 A5
 61 0C EC 56 98 0A 7D 28 7C 17 15 05 74 E5 CC C6
 E0 68 73 DD 34 89 9E C1 98 EC AC 80 68 4F F1 88
 1B E4 83 92 82 2D BB 2F 50 E7 37 58 E3 C7 0D 64
 28 84 15 1A FB 22 08 85 17 B8 6B 5E EB 92 38 FE
 8D 20 BA 56 14 D1 D9 E5 A7 5F BA 04 CD 9D E2 24
 C0 C8 40 E5 0D 50 45 3A D2 54 D1 AE 57 05 01 88
 74 8F 01 18 C4 CD B9 74 9C 7E F5 DC E3 4D 2F 17
 9A E0 5B C5 82 C2 28 AB 8C AC 9E AC 7E 15 EC F2
 E5 3C 4B 52 C2 FD E2 40 0E AA DA 29 93 E1 8C 35
 AC 50 EB CE B9 30 BC 3C AD F3 0A 3F 98 7A 0D 0D
 27 F5 55 95 A6 87 06 37 F4 2F C8 57 B9 9B 91 7C
 CD 78 F8 5E 14 9B AC FB CE 17 FA 42 4E 7E 38 3D
 EB EA 56 E3 67 BE DA 0F 41 B7 FA C4 4F 63 0A 99
 B0 6B 4C ED 73 B1 2E 63 3E 6F F0 A0 80 09 8B B8
 9A 7C 41 94 D0 A1 60 DE 80 04 C7 F7 A2 E4 32 DA
 D8 E7 33 40 26 70 76 CE 2D 0B D0 7D FB 42 3A F4
 96 89 BB DF 53 72 C0 9B 2E 08 18 DD 1C 74 DC 41
 C3 D3 3D 04 D8 E6 D9 F5 3E 50 34 3A 32 42 21 2A
 AF 2F B8 F9 17 C0 E1 B5 A0 BD A7 2C 3D B4 F0 3C
 C4 8C E6 1C CF 0A 7E 7E 40 D6 39 FD 44 1D 20 59
 F3 E6 DA 65 19 F5 70 38 28 53 B0 3C 7D 2B 89 3D
 0B 80 B5 CE 95 AD F1 EB 1C 9B B8 1A 81 59 8E C6
 B2 B2 73 6C 58 63 7C 70 18 3B 12 DB F7 BC 67 9E
 93 DA 01 F1 D3 AC 5B 53 10 47 23 BC D7 92 A3 31
 5F DC 18 F8 DE 09 F2 37 FF 22 71 E4 AA 8C 67 9F
 78 30 7A CE 31 42 88 20 F9 A0 A1 42 BF 9C AF BC
 6C EC 5B 05 38 E8 19 07 EA 4E 3F AA 0C E9 F5 74
 A0 5C 74 C9 99 BB 1B 0F 96 3E F2 06 64 3A FB 60
 86 8C 9B 38 7B 67 86 74 17 42 5A 06 DF 05 87 A9
 8A E9 CB 10 A3 2A 2F AE D8 78 B4 E0 AD 4E 58 84
 1D BF 10 25 28 20 0F FB D2 E7 26 9F 32 48 64 8C
 E1 7B 53 01 0C B0 3B 5F 2D 7C 58 14 C7 F7 45 E1
 F5 43 C9 DB 27 6D 57 24 F7 55 06 B5 BA EF 2E 4E
 F4 50 09 68 3F 7F A9 86 FF 0D 94 74 FD EB BA A1
 9D 20 DE 4B 35 77 FF BE DB 76 CA 09 67 6C C1 75
 89 C2 DA 3F C8 AD A8 A6 79 9B 01 0F B5 0F 15 74
 5A 2C 8A F5 4E 66 24 97 C5 39 72 EB B6 EF 6B 8C
 EC 4A AC 89 E5 A5 69 17 A3 EE 73 74 D5 F5 E3 BC
 43 C8 DD 63 55 52 BC 0D 6B 1D B1 4F 24 BF 49 BF
 11 55 98 9E 5D 66 19 0A 61 FD D9 52 9B E8 EC 55
 56 B2 56 18 7B 6C FD 9B 0A 9E 3C 56 CA BF 0E 24
 D3 73 AE ED 2F 30 A0 E1 B7 4F A9 E3 9D E4 71 86
 FE 18 EB 15 7C 00 C5 E2 B5 F0 BC 45 97 98 A6 54
 5A 1C 16 0F 4C 44 08 15 D7 64 32 1E A8 49 F6 38
 CD C2 50 6C A9 12 4C E4 41 DB E9 B0 1A CA F7 9D
 15 41 0C CA F2 1A 90 3D 39 22 67 20 A7 64 BE C7
 D5 0B 6A EC 05 00 54 9D 85 D5 BA D1 DB B8 D4 99
 A0 D5 2B FC 91 D9 3F 2A 79 E7 71 13 FB 84 6B DD
 12 06 DB 20 65 3F AF 8A 52 15 47 09 C0 EC 7D 8C
 4E F8 E7 72 76 49 B7 38 4B 9E E3 62 A1 D6 8E B4
 2D 0F B7 52 6C 63 5E D6 BE 6E 93 03 52 62 84 18
 04 9C 46 B5 44 B1 96 74 17 75 CF 18 9F 20 D2 73
 C9 BA B6 86 58 79 96 1A 20 99 57 8A 8E 09 EF 88
 A9 60 8B 87 2B 72 4D DC CD 4B 18 0C D9 54 69 36
 13 E4 F7 6E 42 72 42 9B 42 A1 7E A2 EF FA AC 82
 CD 47 EB F6 D2 3C F0 34 EE 7F 33 20 2B 01 14 BD
 0E F7 B8 5A 3D B9 B9 A8 DF 54 86 B9 89 26 5F 55
 2D D3 E8 A8 91 F3 AE F3 2F 7F 94 2E 41 A3 FF 31
 49 58 53 72 39 07 30 8E E2 6C 91 F3 2C 17 03 2D
 E6 7E 81 B5 3C 8A CF 22 3E D4 B5 3B BE 18 1F C5
 0B B8 B8 B9 83 61 31 69 8E 8D 5A 20 60 5A E2 05
 6E 1D A0 BC 99 B1 3E 51 10 77 BF F0 3E 5D 9F 7A
 42 89 29 BB 8F 3A DF 7D A2 04 7E 18 71 D4 4D 9B
 9A 95 C0 41 A9 5F 19 75 F4 6F 61 5F 27 AE A7 8F
 E9 8B 84 93 F6 B6 69 30 16 38 DE B1 5D A4 93 2E
 39 C2 48 53 52 EE 6E 25 2B A8 41 F5 BE 85 A8 1E
 A1 55 B8 C4 90 A2 4C 7F 81 87 E9 8C DA 91 2A 3B
 87 65 48 04 25 B0 93 FD D6 ED B3 3D 5E D9 F7 2F
 3E E2 5F 9E 78 4C 52 A7 76 76 8F 0B 80 99 CD 44
 B7 1F 62 E0 17 1A EA 13
* End 2121761530 2001159978