* LTspice Encrypted File
* 
* This encrypted file has been supplied by a 3rd
* party vendor that does not wish to publicize
* the technology used to implement this library.
* 
* Permission is granted to use this file for
* simulations but not to reverse engineer its
* contents.
* 
* Begin:
 D1 B5 E4 C2 18 43 50 CB DB 02 9E 28 44 14 A4 CA
 76 6D 8C 23 94 92 CD E8 8C CD 75 A9 2E 14 0A B0
 30 67 DA 36 58 1D 92 07 CB 7F 6F 8D D0 FE B7 3C
 0F 22 34 B6 01 DA E1 90 53 F2 B3 11 21 7D F8 9E
 57 BF 32 A8 4A A5 39 BB 75 5B CB 04 2A F2 41 4E
 A8 20 E2 25 39 88 C9 20 7C 76 13 CA 3C 25 94 E3
 B6 03 3D 75 91 A8 D1 24 3F A1 4C 7E DC 31 A3 0C
 77 72 2B 45 F0 C3 EE EB 16 C0 87 90 D1 53 86 8A
 55 54 C3 F0 4F CF CD 16 94 E4 8C 5D 1E E4 CB 2E
 F9 0B AC 06 CC C1 C3 36 F5 93 06 F9 9C 52 5A 6F
 2C 9D D1 28 80 01 92 48 6F 12 36 3A 35 62 63 4E
 A8 A1 D5 E5 E6 7E A2 BE 7E 67 DF 4C C4 9A 6A D0
 4E CB D6 9D 71 7F D3 45 21 94 68 72 27 64 EE 10
 5C 5E CF 32 03 EE A4 A4 58 7A 17 13 D7 A7 6F A1
 6E 8B D0 0C 9E 83 F0 B7 98 48 8F C2 22 65 F1 1A
 A9 03 05 13 AA 89 2D B1 20 55 31 EB 60 F0 09 DC
 AF 1C 10 9B 3B E2 DC 36 37 F2 DF B9 6D AC D4 02
 D3 60 FC 77 D6 B1 B9 3D 99 18 3B 86 15 F4 D0 D6
 ED 46 63 AD 33 E1 6B EE 77 2E 19 BA 4A FE FA C1
 50 50 4B 4A 0E 3E F1 44 E8 3C FF 18 A4 95 F4 85
 D1 87 AF 82 8A 82 D9 75 84 C0 A5 41 50 CA AC FF
 00 17 A1 8F ED 77 30 8F 68 B5 0A 9E D0 AF 3A 7B
 01 E7 A6 88 16 A1 D1 6F 42 49 FD 30 AA 2F BB 1C
 C8 07 BC B6 84 BB E5 25 E7 8E 14 FE E7 01 3D 37
 68 90 57 EA 90 C1 B0 63 8B DB BC 72 FF E1 74 2E
 D3 F0 C0 A8 F8 71 F1 4A B9 78 58 35 49 FE 4D F4
 23 5F 4E 7B B2 31 CC 8E 6F BF 27 AC 02 AE 48 7F
 8D 20 E4 8F 08 C5 E4 3D 99 90 25 23 33 49 60 DD
 CF 50 2A 11 33 D7 F3 20 6D BF CF 9A 49 0A 1C 86
 1C 99 39 53 25 5F E4 5C 8D B7 1F D8 19 D2 BA 7C
 DD 21 A7 1C A1 CD 72 41 F6 2A 8F E3 E9 F0 88 4C
 C9 F6 E7 8F D4 73 EA 4B 8A B0 D2 1B 03 B4 90 8C
 98 93 E1 FD CC D4 65 2F 5F D4 DC A0 EC CC 03 0C
 2B 40 4A 0A 18 D4 53 37 8D 98 88 24 5A 55 5E EF
 0B 32 DE DF DD D8 E0 55 18 EF 35 6E EB 47 7C 1C
 E6 8A E6 9E EE 75 D9 5A A9 F9 C8 C2 68 51 2C A9
 A6 B0 4E 6A A1 00 10 C7 BB 3B 04 DC 64 6D 6F AC
 6D A2 62 99 BA 78 44 F6 C4 7B 8C EA CC 16 61 AC
 D1 EC C5 F8 5A F8 08 75 B8 23 FF 6D F0 1E AD 0D
 65 D1 9C 2C 21 9A 51 B7 07 A1 89 07 4D 2E E8 52
 CD 85 05 D7 8D 80 01 F3 05 92 3B E5 31 79 FF 13
 61 01 98 E1 AB 5A 75 D5 77 04 19 83 76 16 C7 59
 65 51 E4 CC 64 35 C0 84 08 4C B6 B7 74 AB E9 50
 8C C4 4C C3 4D 8B B7 E6 00 41 56 B1 2B D9 42 81
 BB 12 89 8A BA 6A 8C D5 53 34 53 D0 EA DE DA 94
 F7 0A 60 E8 F3 E6 0D 20 CC 99 4F A6 14 28 1E C1
 F0 99 18 52 AC 2C FF DA A1 EF 14 3C 7F 4D 61 25
 1B 4A B3 3F 3A 70 02 C4 39 22 23 07 45 D3 9F 6B
 9A A7 37 00 C8 F2 3B 25 52 FA 98 41 C0 48 E1 48
 F7 3C 3C FC 5A 9D 2C AC 9A 43 D3 07 11 DF 78 1D
 97 3F 8B CB 59 9C AC 2A B8 1A 18 7E BA DB E8 42
 69 73 42 E6 37 F4 76 24 F4 F0 87 99 2C 1A AD 48
 85 F4 96 65 29 0A 37 BA CA 5D FD E1 DE 1A 54 74
 DA A0 89 44 E3 52 44 76 AF 07 90 27 13 F1 CA 72
 AB 7C C2 0E B8 84 0A DE 35 86 46 F1 CB C8 BC 66
 E5 7C 8F 18 BA 7B B7 3C 40 65 46 C4 83 F9 3E 03
 FA 1C 3B 98 6D D3 71 41 A6 77 C4 BC 21 2A AB 63
 BE E3 69 A8 7B 9F EC 96 2D EF D9 8C 10 C2 68 63
 B3 53 A4 13 86 8F D8 2A CE 71 B1 77 AA 04 8E 3F
 AD E5 2F 4B 74 C8 5C 66 3F B4 1D 23 EB 73 0F C3
 9B CF 13 FF D6 01 1A 80 4F 34 60 D6 F4 14 3C 9B
 79 42 EB CC 56 1C AD 94 76 B7 19 42 86 09 D3 97
 04 07 1B 2C 2F 7F 2E CD 5F 3A 9B FD 7F 52 80 43
 09 FB E8 EC 8B 88 9A 94 43 8C F0 A1 24 C5 0A 38
 DA 7C AF 0C 3F 3E DB 26 A3 1B A6 FE E5 1A E1 75
 7F 1E C7 E1 2C 2E DD C2 80 80 A2 7F AF DA 70 39
 03 12 60 6D 37 0F F7 1C 49 AC 85 BF 32 23 5A DB
 62 98 8D 80 32 7B 88 35 59 A1 0F 5B 87 56 25 F6
 8E 28 7B 8D F4 D1 18 2E 47 74 85 9B F4 53 17 E3
 88 60 51 FA D8 02 16 D1 91 F2 49 46 F4 9F D9 A3
 53 DF 47 5E A7 2E 85 AB B2 41 E1 D3 BE C3 49 71
 3D 04 A7 4B 28 A7 DE FA D6 2D E5 BD 12 E6 C0 AB
 FD F5 8B 32 CF 84 A8 7F E5 00 B0 5D 7A 59 A1 B4
 8A 02 8D 23 A0 83 F4 56 F4 4B B7 2B D7 09 CD 70
 06 B3 8D 37 BB D2 A2 F0 3C 9C A0 CB 62 F8 33 A4
 FB D4 4B C8 4F F3 4C E4 7D BC 0D 4C D4 DC D0 EC
 8A 62 03 C5 E2 0A 8A E9 BB 20 ED 59 12 D4 5E 81
 5A 60 28 FD 6D A3 2C D2 8D 88 21 0C CF 5E 1D AD
 B9 A9 27 86 43 61 9E DE 30 7B 11 76 81 A5 7C 34
 55 3E 72 16 42 D3 7E 48 42 34 E5 93 87 FB B8 4F
 61 5B 4D 89 25 AC 45 84 37 77 FC 69 51 48 B1 67
 5B 2B B6 2D 76 6A 23 E5 67 5E 09 AF 97 4B 21 B8
 3E 78 59 49 15 D8 99 76 56 D4 7F 34 00 E1 F6 8C
 ED B9 88 4A BD B1 8F F0 CD F4 92 89 DE 7E E5 98
 93 50 B3 9B 08 FF 6B 49 F3 E7 FA 3F B8 BD A8 AE
 AE D9 85 3E 0B 15 70 6B 16 4D BD 4E 71 D8 10 6A
 43 92 42 7F BE 1F 2B 94 CD E6 81 27 E5 63 75 6A
 B8 F9 BB 32 E9 1E CB 19 9C E5 A0 A6 59 3D D2 E0
 A7 3B 97 5D 14 09 00 59 2E 42 71 A8 85 21 44 B3
 51 09 37 B9 2B 96 26 09 78 A7 DC C5 03 7A 01 A7
 63 C9 79 CA AD 34 A9 EA 87 40 A5 C5 D2 AE 7D E7
 DB 76 F2 A2 6A 0F AB C7 15 57 4B 99 4E 50 DE F0
 9D 84 1C F0 2B B7 45 C9 0F DC F2 B6 33 B5 17 A5
 37 A7 47 71 A4 95 72 D2 F2 26 19 43 B9 A2 32 26
 A7 3E C7 FA 50 AF 6F 5B C7 56 2B C5 74 4E 06 7B
 95 62 CB 40 C3 49 7B 7C F6 D6 0E B9 DB A7 06 8E
 2B B6 B2 64 28 76 7E 1F 29 E0 9F 54 CC FD 18 F2
 AE 91 43 85 72 BC 4A D3 22 7D 29 5E 98 BF A9 4E
 18 D1 D8 31 0F 36 03 C9 E3 9D 89 4F E7 FA 30 E7
 71 C6 D8 02 68 54 89 27 75 75 BD 12 BA BB 7F EC
 47 C2 7B EC C7 44 22 56 57 D8 DD BF 89 F5 D6 1E
 C7 DC 27 E0 4F 7F 26 59 88 4B FE 2B 81 F5 97 AD
 4B 48 91 A2 75 43 57 B4 38 FC 21 2D 3E A7 66 4B
 93 F7 D3 56 45 40 49 A0 C3 90 83 8B 22 B2 34 6A
 E2 D3 46 1D 11 B3 BB 43 3F DE EA DD BD A7 C2 D7
 93 F5 D8 E7 F9 CD 99 00 84 76 AC D8 89 7F 31 F4
 D3 D4 77 30 AE 57 D2 BA 41 0D 66 B4 C8 B6 63 95
 EC 8C F4 74 6C 51 1F 86 E8 2F 3E 15 8A 73 F2 03
 55 1A 8A 28 4B E7 E8 DB C1 96 F9 F1 2F 9E 1A 1A
 EF 70 42 AC 66 BC CD 67 D5 E7 D0 3E 86 59 6A 9D
 91 9C B9 2A F3 E5 E8 DA 01 20 A5 1A 1A 7E 09 B5
 B6 97 68 2F C8 7E 56 06 67 22 89 72 8E 2A F9 EF
 78 B8 32 9A E2 46 88 38 7B 6A C4 FA B4 A1 CF F1
 1C 3D A8 D8 35 43 5E A1 C8 8E FF 31 2D 21 D9 5E
 60 CF F3 87 55 0A B2 DC 99 0F 90 75 83 4E 1A CF
 7E 9C 7A 3F 25 99 E2 4E 8A E8 EA D3 AF FA 43 BA
 B9 77 DF BB 39 A2 5A 39 10 47 D5 4A 26 39 28 C9
 92 28 E6 B4 5F 40 E3 DA BC 80 DE 55 0D 0A 59 1A
 A1 69 E5 D3 95 31 30 25 2C 97 F0 1E 75 91 AA 6F
 D2 C3 3F D8 C2 C6 D8 E8 0D 57 5F 00 17 3F FA 3B
 9D E0 41 95 C8 1F 57 F4 EF 02 AE 2F F4 87 4B D1
 32 C2 5D 7A 47 AD AD B6 29 B6 90 53 24 EE AF 29
 9E 6D 4E F2 C5 28 B2 33 41 DB 86 07 B5 67 12 34
 53 63 01 CE 59 28 E6 E7 E1 EB 29 77 59 CA D6 CC
 C8 04 C1 EB 72 C7 54 79 E3 8A 76 3E 8C F5 66 1D
 3C 77 6D 8E E4 71 2A EC A9 58 15 B7 2D C5 C8 53
 BE 54 DB 16 7C 2E DF 92 30 2D 98 B7 C7 C9 39 FB
 71 DF D4 E8 66 AB F1 FC 28 92 4F 2B EE 35 BC 1E
 16 26 9B 5E 16 91 97 6E 13 C9 83 5E 4A CF 00 CC
 FF 99 13 F1 62 17 3B 20 A7 92 41 FA AC 3A 25 25
 34 2C 1B E6 99 DF 91 88 74 1F 0D D4 3F 90 9F 23
 A7 54 DA 9C 7D CA 13 12 A5 9C DF F4 0F 9D E2 31
 C3 B1 F0 3F D0 5B 80 0D E3 58 52 F7 76 DE ED 36
 BE 05 6F AE 26 61 F5 E9 6F 2A 4C A7 73 5E 31 BA
 05 30 59 36 66 5B 2B 12 AE D1 89 0E 56 D6 EC 7C
 97 40 36 3F DC 85 9C ED 65 4C 6E 6D 9C 05 0A F8
 7E 9E F5 80 88 C3 EF FD 26 00 DC 15 C0 8B 42 FA
 E1 B5 4F 2C F7 08 E5 CE DC 2B D8 EC 26 81 B8 D4
 E2 22 0B 1F D9 36 0A F4 53 F4 6E 0B 9E FC 25 E9
 FE 3D C0 A1 F8 99 66 91 26 D8 1D 52 C7 C8 BC BB
 44 BA FE 78 D9 B4 74 3A 3C 83 7C 11 0C F0 08 C2
 3D A0 04 0F EE FB E8 4C F3 AC 46 A6 9E FD 71 A6
 60 67 1A A2 9D 53 77 FA 8E 7C B2 19 8D 9D AB 58
 3B DF D6 6B 4E DC 84 84 94 D6 70 DC B1 66 CE B9
 D6 D7 87 CE 8B 78 DB 14 68 8A DC 20 3F 45 7B E6
 96 18 7A 42 B6 0F 86 98 6A 10 2C 4A 7C C8 7D A7
 C6 66 30 A9 0D 97 27 E2 3B AF 18 0A 5A 5A 00 3D
 0D 8E 9C A4 37 6B FD 8F D2 83 BB 74 FD DA 8A 2B
 A2 70 5B 82 A6 9F 77 C9 66 8F 43 17 44 24 3A 25
 E0 F4 D8 D3 68 94 CF 5F 89 9F 2A 9B D5 4C FB A5
 AA 11 92 4A 22 62 47 91 76 C7 74 B9 07 22 E0 7F
 DE ED C9 CF 7A E0 FD 46 2B 2D 67 79 80 6F 2C C3
 20 F1 20 5C B1 AB 99 B9 29 43 08 96 DC F2 A7 85
 64 D2 DC F7 4F B3 2F 6E 23 6B ED 82 29 35 4E 6B
 0D 61 3B ED B1 A4 FF 5E 88 28 04 B8 9D 10 9F 30
 D4 91 20 83 CF 46 E9 F0 31 EF 7B BB B5 BB CE 4D
 1A A5 E1 04 3D 91 DB D1 04 EB 33 4E A3 15 42 C9
 12 57 DE 24 DD FA F0 F0 E1 16 98 8F 23 3F 77 77
 8D 7C E4 F6 7C F8 C0 39 BB FC 5D 60 98 8D D9 3A
 7E 5C C1 BC 66 A9 CB F2 2E C1 F6 9D C4 7C A3 8B
 E4 D6 61 DB 79 1F 78 B1 D8 52 81 B1 AD BD CD C2
 D9 F8 8A 82 7E 60 95 5B 6A 6D 79 54 C6 60 67 5B
 1F 12 A1 6C 7C 95 F0 FD 42 1F 08 83 2B D7 0D E7
 8F C7 0A 25 09 8B 3E D7 39 1E 68 0C FC 0E 97 60
 F9 10 3B 8F 48 EB 85 57 9E E5 2C D4 83 E1 15 CB
 4C F1 83 6C 05 12 66 1C CA 95 86 90 6D 29 E4 8A
 67 E7 01 1E DA 73 1B 87 67 B6 9E E3 76 9A A5 6B
 39 71 0D 32 FD 22 77 8E 43 D2 53 49 31 3A 3D 89
 8F 52 17 B6 5A 53 AD 17 F8 19 80 55 44 26 F0 3B
 8F 11 DE 2B 7E 1D BD C7 7D D2 5B CB 9C 5A A8 01
 23 D3 0C 7D 52 EF 90 AF 86 CB 18 5C 4C DA 2D 6B
 C7 63 88 E9 51 BD 9E EE 4D 8C FE 22 BE 03 15 47
 7B 80 8B 68 14 C0 FF 94 7A A1 72 7F F7 91 1C 49
 73 F1 3E D5 85 51 26 6E 0D BE 42 9A 63 ED 66 36
 DA 51 39 F1 2F 2D CB 0E 19 7C C8 AA C7 62 5F 64
 32 F2 B1 BC 09 00 C3 5E BF A3 25 69 D1 70 4D 81
 B7 6B 16 6F F5 31 41 34 08 90 E1 78 44 92 07 F1
 45 69 FD B1 CF 9C E8 29 78 D7 6F 73 4A 2C BF AE
 66 1F A2 26 61 80 B0 24 10 52 AD 40 84 89 A0 C1
 C4 7B 24 DB 47 15 71 54 E3 87 03 90 56 41 21 AD
 4E 28 EF BA 6F CA DC D6 96 EE 93 94 33 B3 16 74
 E0 3B 18 7D 08 4E 73 15 0B 57 D9 96 7C 77 78 20
 2A 22 80 DC 3C 5F 21 51 CD 7C 0F 17 8A 6B 32 69
 8B 04 EC E3 27 FE AF A5 52 DB 15 1F 1C 70 57 0E
 D6 4E D4 61 33 86 D2 49 50 9D 40 EB 27 7B 1E 68
 67 F3 77 CF 76 3C 25 6E 55 0A 40 FB 09 9B F8 0B
 29 71 13 84 2A 64 9C 2C 40 4E EE B5 86 70 EC 9B
 01 59 75 66 C1 2A 49 64 AD 44 59 5F 60 CE 44 CA
 17 AA 05 B6 46 ED F3 97 B0 13 1C 61 D8 FB 44 D9
 D4 B3 83 ED 8D FC E2 EC 61 42 41 7A F4 13 00 C9
 D1 9A 55 73 36 91 B6 99 DC 40 AA 90 4D D9 51 36
 93 63 9B 06 89 E8 69 D1 3F B7 A8 FB C3 EC B5 F4
 DC 95 29 2B B3 3E D1 80 32 5E 4F 31 7F FD C3 F3
 58 67 A1 17 3A F4 4C 22 15 46 6C D7 10 CB 7C A4
 19 57 8F 82 F4 40 89 55 5C 3E 52 11 C9 CF 87 75
 13 20 64 E8 CB EF BF 4F 64 B0 08 D7 62 6D 5F 52
 56 24 CE 0F F8 E8 3F 87 88 B2 4C 83 E8 A3 0C 27
 3C 88 85 6E 36 9E D0 AB AC 56 31 D9 82 D1 8E 9C
 4F 7E 23 B8 1C 12 AC CF 52 97 3D 84 67 DD 5A BB
 03 32 E2 9F CD 54 74 77 C7 8C FE CC D6 CC 1A C9
 CA 0E 25 EB ED 4C 1F 03 7D 73 91 C1 09 57 E1 BE
 B9 2E 4C E1 33 BB C8 8D CB C9 D5 AB FF 0B 46 7A
 9F B2 65 B9 12 3A A4 A2 C0 6D 4D 24 EE 43 4A 37
 2D B4 25 00 7A FC 8F C2 DB D7 D4 1E 5E 5B C0 CA
 D9 9D DB FF 69 94 AF 4F 51 74 09 02 82 95 E5 2A
 90 43 BC 76 6C 91 9D 3C 78 62 92 C0 4B 89 57 92
 44 0B C7 34 36 27 DF FD 81 EB B6 91 C7 1D CA 6F
 25 21 E4 DF 20 A1 DA 3D 02 8C 1A 5E 27 16 9B 71
 A6 0C 24 F1 DB 23 3E 1A E9 DE F6 AB 6C 94 26 23
 9F 91 62 95 5D 38 7A 6F D7 6A C1 C4 7C 7F 6C 6A
 6F 4F 9F 66 38 D1 2D A5 E1 27 F9 4B 5E 7E C1 C6
 C9 90 D9 54 C3 3B 2A E5 06 38 4B CE 8E F1 03 72
 6A 95 9B 5E 01 01 C5 97 B5 00 D9 59 F7 A0 2C B0
 65 5A 68 9C 9E E6 C1 9B DA 32 FD 33 36 2D DD 2D
 1D 2B 96 2C 46 64 5C 8A E9 73 B3 46 07 0D C0 13
 99 21 7E 87 FF 09 18 7B B9 D4 7A 65 A3 CC 3B ED
 B5 7C 2E C8 D4 06 FC 0E 66 DF 07 B6 80 6F 9A 16
 C9 18 C3 21 F9 AD 90 8C E0 FF 02 5B 37 E8 89 46
 B5 70 DB E0 DA C2 BE 71 49 A4 71 9D A6 7D 46 28
 11 4F 93 28 0E 91 BF A3 3E E6 58 00 15 92 00 1F
 22 47 8C A5 DF 3B 88 27 A3 C7 80 D1 8F CB 06 D0
 4F B8 66 C6 87 66 3B 62 7F EA 5C 27 91 0C F8 A8
 E0 80 82 8F 84 10 C0 D5 BF 3D 00 3B EC A1 0E 6C
 C4 14 AA 0A E4 FC B3 25 61 A8 7D D5 76 D7 87 0D
 61 51 D0 F9 F8 B9 3F BC 12 36 2C 55 2F FE 77 2C
 94 5B 19 52 C6 7A D8 91 DC CC 69 2A 01 3E 56 02
 A1 EE 06 02 D1 84 D4 FF 76 BC 01 44 45 87 4A 31
 AF 31 AC C0 F7 97 2F FD B9 C0 73 66 4F 4D 8B 4F
 FE C3 A7 E8 2F A3 EC 14 94 17 FC 15 4B 48 28 BC
 AC 0D F2 9A 9F 83 85 5D 2D 18 55 5E 21 5B 28 0D
 4F 79 B7 5D 54 34 2D 86 1C 54 FC 53 D5 B5 69 21
 22 B5 8A 5F 4E 72 3B 8C AC 06 72 CD 6F F9 44 BD
 DC FD 95 5F F3 E9 3F 6F 80 C8 BE F5 73 39 7F 12
 AD 55 BE 01 35 04 E8 5F 8C 1D 3E 22 05 0A 94 74
 37 50 AF 75 55 E0 06 AD DA DE FE 43 FC EB B2 3E
 FE 18 FC A8 1A D6 E7 48 86 94 FA 65 92 CE 66 55
 AD EB 5F 50 B8 4B 52 51 DD 49 DF B9 99 47 9C 38
 78 86 E0 1C 8F AC FC A5 5B C0 FB C3 DA C8 14 8E
 29 CD B3 61 E3 13 B8 09 06 21 18 5C 46 F0 C6 93
 44 23 B1 28 50 72 0E AB 6A 54 B1 8A 95 CB E0 23
 0A 6E 2D 10 5E 04 2E 63 2F 54 FD 59 FA FB 73 97
 35 F9 B2 5D 93 24 7C 12 85 D2 D2 07 1B 0C B3 60
 46 10 D0 62 30 7D D5 7B 7F DD 71 D9 95 A0 94 2C
 74 77 11 C5 39 86 1E 00 2B 77 25 C4 FC 92 F0 31
 75 90 73 F5 F3 A1 4B 48 AF 55 94 64 E3 6D 32 6B
 25 87 B7 64 66 8D 3D 26 33 7C 92 2E BD BA 20 10
 47 DF E6 40 88 39 EF 68 86 65 19 0E C6 9F 07 98
 4D C4 21 75 69 38 1C 7F A6 31 18 52 FD C4 D1 C1
 65 E5 20 5F 68 24 D0 78 59 E2 53 45 BF AD 27 67
 6D DF 94 E5 1A E6 20 20 BF EC 8A 41 6A F8 F5 6F
 F9 4F 98 B7 71 A8 C8 A1 9E 92 18 39 04 00 58 27
 3A 68 A7 87 B4 E6 BD 04 3F 59 54 05 5A 86 12 AD
 95 6A B7 5C 07 58 59 AA A6 89 16 8B F7 3F E4 9C
 86 53 A3 BA 3E BA F9 DC 7C 25 C6 85 15 41 00 C1
 8E 94 70 E2 1D 6D 16 C5 A5 92 35 93 65 8D FF 81
 06 20 97 3B B0 BF C9 7F AE 72 F2 34 3C 57 7B 3F
 45 B5 43 C4 B2 DB 5A 55 B0 DC 5D 6F A6 90 75 ED
 23 F5 27 07 2A F5 44 BC B7 05 72 33 7C C8 AA BF
 25 89 4A AE 20 7B FE 3D B3 C5 02 75 56 91 07 8C
 70 2A FF 8F A6 FD EE C6 74 57 49 C7 91 88 4B 29
 05 0F 00 CD C6 F6 1B 63 19 B1 62 94 91 92 F3 BC
 40 B4 F1 53 61 23 9C BE 15 FF 11 70 07 E0 7A 09
 86 7C C0 5E 62 DB A2 AE DB FC 4B 88 ED E9 88 24
 72 F0 FA 10 D7 53 E5 19 DD 3F D8 7C BB 08 D6 05
 EB D9 04 E9 0C 60 0F A8 67 0C 8E B9 20 34 D4 A4
 0C 3C FC 7B E8 7B 4D 53 51 00 A5 FC A9 A7 3E 13
 69 4E FF 53 A0 90 8E 51 4D 90 ED EC 62 0C 7B 2E
 FA 9A 8F 32 B4 E3 7E 05 FA 40 1D D3 B3 19 28 12
 A5 C1 18 D9 E9 E3 37 33 54 1A 5B 34 34 F0 26 FA
 E8 04 0D CC 1B BD E5 1D A9 96 BC 9F 2E B6 D0 2C
 CA 46 F4 17 17 91 A3 06 E0 EF 24 A4 09 DA BB 3F
 97 65 E2 27 B4 C1 FA 4E AE 2F 24 C4 9E 72 38 C7
 58 4C E1 9E F4 75 E0 A8 69 80 06 65 13 66 DB 26
 50 9D 6C 61 0F B2 4F BE 13 98 42 84 A3 1D 25 7C
 66 69 B0 EB 36 D9 77 E1 35 15 B5 CA B3 5E 77 26
 FD DB 31 0E D6 8F 22 35 7F 0A 0B 49 66 9E 55 DB
 8B D5 FA 25 92 BE 1B 74 3C CC 23 C0 5E BF 7E D9
 35 A1 7C F3 18 E3 78 F3 F4 CD 39 C8 D3 EE 47 EB
 D2 87 2F 2D 20 17 7E 95 BB 67 F1 D3 52 EA 4B 54
 0E 84 84 45 8B 9A AA 21 83 F7 65 68 0D 75 20 88
 47 93 BD E5 73 C3 C7 9B 30 68 A6 AD 7B DD BF 69
 12 31 45 19 AA 1E ED 09 B1 C3 10 BE 3F 26 D0 89
 BB 57 01 F9 87 FA 32 CE A0 18 47 E6 68 B2 A5 19
 C6 7B F3 51 FA 3F D4 5F 3D 5F 56 A9 C6 0B DE EF
 4A 5A B5 3E 73 3D 35 ED 3C 6C D2 C0 1C CD AD 32
 7E 24 79 08 E5 29 F4 3C E7 F9 E8 EA C5 66 CD 3C
 51 9B ED 38 02 AC C5 AA 52 83 7B C1 1F D1 FB 8E
 93 82 78 DA 29 8A E2 6D 46 50 5B 55 C3 E4 E4 A4
 DF CB D7 8E EF D3 82 79 E7 37 C5 09 36 3D DF 48
 E7 AA EF 8C 6C EE 92 70 B2 23 51 26 F3 20 2C 74
 05 DA 48 71 6A 55 A4 03 B0 5B 65 3A C6 55 BA 9C
 D9 7E FE 1E 9D 96 34 1F 74 62 7C 04 71 27 06 F5
 54 2D 02 E1 70 E4 65 42 8C DF A5 7F 8F E3 13 EB
 D9 27 17 0E 35 E3 3F 23 CC E5 45 49 AF 1B 9E B4
 1C AE 82 77 52 D9 5C 09 B2 C8 68 87 C6 8E C1 DA
 EB A8 9B 85 65 D9 4A 3D 03 C2 EB EF 58 BB 16 7C
 BB 99 D5 CB DE 15 C1 CA E9 02 65 4E 30 57 0C 3C
 08 FC D3 76 53 49 2B 69 32 8B B0 A5 5F 41 78 10
 AF E0 98 56 70 38 40 3D DD 0E E4 DF 54 47 7C 07
 69 E5 2B 83 BD A3 A6 4F 9C D7 09 8C 6E 18 9F FE
 AF 6A B7 11 8C 17 AE 3F 09 27 E9 E2 B2 09 69 EC
 5D CA 28 A8 CC 2B A0 5A 9C 8B F0 E0 1E AC 88 55
 C6 BA CD FB D4 90 16 C2 4C D4 F2 84 97 BF 37 C6
 A4 D6 16 DE DB 14 00 12 EE 40 BE DC 50 32 C7 50
 D0 41 B1 BA 8C 52 7A ED 3E 69 3B 38 31 BD AA 95
 C7 A1 A9 4E E8 A0 6E 79 73 D2 9B 35 1E CD 2C 12
 5F 1E B4 00 01 EC 7C 90 02 FD F8 EF 69 12 0D A7
 45 43 3B 55 18 2C DF 51 2E 9D 91 6A A2 5E 57 3B
 88 F8 09 83 2D C3 51 D4 03 B7 94 5D 7F 9B 23 BE
 4F 99 78 11 CB E6 97 AA D9 AE 15 E2 22 14 68 A5
 82 EC 63 1A CC 7D 24 7B 5A 46 A5 24 7F 56 73 22
 38 BF 8C 34 7D 6F 35 3F F2 11 12 9F 45 2C F9 60
 87 46 52 40 C2 34 AC 00 3E 98 91 88 0B 34 61 30
 55 43 A4 53 0F C9 40 28 B3 EC E9 A0 7F 8C 94 50
 E4 3B 21 9E 2E 33 10 EA F1 7B 9B 80 22 0C 78 F4
 24 A7 CD 1A 95 AB B3 A9 8D 0A 45 01 35 B9 B6 3D
 AA C2 0B 8D 9D 4C 28 D8 AF A7 E1 D7 EE B8 4B 59
 2A 1B 35 1F 02 C3 0C 67 F9 9B 0A 0D C1 DA 5E DB
 46 32 C4 19 26 9C 98 33 F4 F8 50 B3 43 61 EE 9F
 5B E4 5F 37 5E F3 CB EB B8 AD AB DE 19 0C E6 9B
 C2 BC 77 E5 5B 85 5A 43 59 A0 8E F1 3E 05 E7 7E
 5C BF A6 03 9B 8F 3B 53 56 A8 C2 17 0B 1B 02 69
 38 80 03 C2 5B 5D 5C DE FA B5 03 A0 AD D3 37 6A
 C1 94 BB 8F 69 B2 AE 9A B4 43 21 9A 32 36 92 5C
 B1 84 78 2D C5 49 85 11 A6 9B 9E A6 03 5D 60 4D
 58 F2 B2 16 CF 1D 72 AE B5 06 1F CC 82 87 7D DA
 10 51 49 CA 2B 1D D6 BF E3 16 F7 92 57 3D CC 4A
 EA 84 D6 4F DC 04 B5 D6 43 AA C2 D5 32 DF 5D 51
 E8 99 7F 68 34 00 E8 47 F2 FE B2 5F F9 54 67 B2
 0D E9 03 FE 0E A7 23 A3 E8 FB B6 DB 79 0B 42 AA
 AF C3 BA D8 33 80 41 9F BF CE 36 C9 06 B0 FA 33
 6D 70 6C 2B 34 4F 45 ED C7 5B 7F FA F2 08 2D 1A
 2D 3B 3F 9E 86 2F 2D 1C B8 DC AA FD B2 47 6A 5B
 06 2F 63 D2 EE F5 26 0E B5 E7 10 77 4E 60 F5 18
 EE 39 9F 9B 67 0D EB 31 59 C3 1A 68 E4 DF B4 71
 A0 76 4D 83 DD 99 15 AA 4C 7D 3E 61 11 B6 89 6F
 53 F4 18 50 23 D8 7E B9 5D 6D 76 7B A1 9C DC B4
 CE 5F 11 BC 03 0F 29 71 5A 94 8B 65 6A D4 11 8E
 9F 15 E0 51 87 00 FE 8A AE 2D 77 E3 C1 2B 03 6B
 59 00 D1 51 1B F8 7A AB F6 BA AA BF B1 F7 D1 BC
 45 1A 04 FB FF 8F 02 A3 D2 D7 72 BB 3E 03 23 6C
 88 7C 72 B2 D0 6C 17 15 91 6E 82 F8 29 94 07 98
 18 16 40 70 C6 B2 83 83 32 C2 6A C5 75 B4 36 EF
 9D 28 38 D7 77 D6 B0 10 00 9D 05 F0 19 BF 58 7B
 D0 02 ED 48 87 05 8E 3D AC 6C 23 10 80 B0 65 8F
 94 9A AD 67 92 72 83 0C 4E 7F D6 A3 0B 5A D8 9E
 EB 83 04 25 FF AC C4 39 0D D3 59 E6 3B 3B 34 B3
 0C 77 00 DC 46 3F D9 F9 11 09 E8 45 CD 1B D1 FE
 FD 40 47 5B 6A 25 43 42 B4 B4 0B 85 EB 86 64 C4
 B9 F7 A3 FE 1A 1B 70 13 1C 52 B0 A6 72 71 A9 F0
 04 20 90 8E 03 A9 DA 61 56 90 C0 30 E6 11 09 5D
 B8 C0 BC FC 6D 06 A9 82 66 4C 99 9C D1 2E 05 DE
 AB 59 DE 6F 06 A3 7D 56 4D 3C 99 42 61 E2 2C 3A
 70 7D 3A E4 77 54 73 9D 70 A4 4C B6 70 3F CC 50
 A8 E4 9A E9 7B 95 50 65 F0 D8 51 D1 AE FE 64 89
 0C FC 00 48 01 0A 08 7E 4E 1B A9 48 24 DF 9C D9
 CB 1F CA 4D 24 83 5E 8D DC F5 80 4E 37 20 F0 B8
 97 A5 B3 9B FB 92 A9 FF 43 91 CC 47 92 0B 53 C5
 5C AB 7C 05 0C 72 C8 7E 5B 15 32 BA 56 26 8A 9E
 44 8A 80 0E EC 21 B4 D5 87 7D 05 74 61 FE 9C 40
 33 E2 CF 4B 96 5E 16 FA 17 55 C3 51 3D 08 BF 09
 94 FB 60 53 CA BB 94 C9 DA 56 B5 16 81 93 BD AE
 E8 87 B2 E6 AF 15 33 FD 62 F6 8D CD 61 0E 8D FA
 AF 4E 82 8A 1A 97 3D 87 35 71 92 70 63 CA 17 7D
 07 E1 45 96 31 1C E6 E1 EA CF EC B1 38 2E 04 FD
 D9 93 80 F4 BF EC DA 59 BD FA C2 81 FB 21 92 EE
 A6 76 9C 08 5A 27 B0 06 D5 18 33 1C FD C7 C1 4A
 4C 4F 72 31 5F 3F A0 B3 20 00 8D B5 D8 35 52 D5
 37 15 A6 17 23 EB E5 90 F2 C1 88 00 C0 C6 77 2C
 9B 93 C4 8B 14 E2 83 F7 05 CD FB 0F 1A 04 17 8D
 EB 9F 86 CA 96 C6 38 86 F1 C5 AA EC 5B 04 35 81
 1D 2E B2 84 D6 5E 18 46 58 BE 3C 7D 46 92 99 7D
 3C FD A6 04 95 F3 56 61 D5 95 8D 08 3A A8 2A B3
 90 F3 DB 70 26 3F 59 14 A8 86 52 72 4B E9 46 D9
 35 36 8F 0F 66 EB BA 28 C9 89 08 64 54 3F 30 5E
 AB 9F 9A 70 23 10 AF 3D 91 00 5D F9 11 DE 4B 13
 29 BE 9D 27 C2 38 90 5D 27 37 81 FF BE BB 05 84
 91 61 CE 4A 50 9B EB 3A D7 75 FF 4E 2E 5B 83 B9
 44 9D D5 6C 80 E6 D5 66 5D D8 88 32 13 A0 4D 42
 E1 96 27 67 A3 35 81 8A 2C 76 28 1B 2C 9A 42 9A
 FE 07 3B 59 95 E0 8E 1F 73 0F BA 8C 14 D5 CF 34
 8F 49 7C C9 B7 4A 9A 48 C4 4D 83 23 33 1A C3 16
 E1 69 32 A8 D2 A0 64 B9 37 FD B5 A7 3F 9A FF 4A
 61 0E D8 F3 A6 96 CF 57 EA 87 AE 92 7F 7F 32 7F
 8A 8A A5 7C 91 1F 5C 49 DE 61 AF A2 37 AC 7D 68
 AA EF 0F 50 5F D6 B9 01 99 54 EA 41 EF D8 CA 17
 21 0A 9B 3B D9 0C 8F A7 6E 26 AD BF E6 03 9F 52
 4F BC 54 3C 91 82 1D 96 78 9E EE 5A 6F BF 43 44
 AF CE E4 3A 72 DF 0A 03 73 C7 EA 9C A7 1E CE 09
 DF 18 4F 87 46 8B 10 1B F3 BE 3B D0 98 BD 8E F9
 C5 11 B7 1B 99 16 C6 B6 5B C5 74 73 41 47 AE 5C
 0F 86 A8 1D 91 0F 19 F2 24 34 A3 60 B4 D2 EB 3F
 51 93 3C EF A1 36 71 A9 A3 60 26 14 F1 DB 84 B0
 E3 F3 29 D7 D5 B9 44 AC AE 46 CE 65 3A EA 64 C3
 3D F9 B9 A7 AC 91 B1 7C CA BB F3 11 F4 6E 8A C4
 88 00 11 D2 DB 2C 65 A3 17 7E 75 4B 84 9B 7C D3
 82 48 AA 85 3F A1 17 9B 7B 26 26 C6 39 20 2F E1
 99 D7 63 CB 6E 51 10 11 3F AD 4B 2F 61 E7 03 8D
 46 BA A4 E8 3E D8 07 1B 45 61 C9 27 69 79 B9 E2
 81 26 E8 8B F9 74 0F 15 14 2B 5C B5 08 7D 94 BA
 7F B4 C1 1A D5 BB E6 8D DE 45 96 10 D1 76 F0 78
 6A 07 25 75 95 F7 2F B2 C2 3B DB 03 5B 33 A9 8F
 90 74 FD 2E 96 D1 48 9D CC BD DB 07 05 E0 B3 A1
 44 B1 87 79 C9 04 59 2D DF 96 A2 AF D5 AC C4 A4
 35 49 40 25 B9 D1 A8 AA 8A EC 1E FF 39 7C B0 A3
 7C 67 08 80 31 B0 CE F8 C3 5E 95 D8 76 63 54 8E
 54 30 C1 01 47 7B AE E6 9C 3A C5 CB 1B EE 33 96
 9D 2E 6F B0 5A A7 20 CF C7 CB D4 7C 11 A0 71 BB
 80 9A 5C 3B 39 11 D9 9E 49 66 FC 66 5F 45 0A 3F
 D3 9B 9E 92 C5 0D C3 CB E3 42 AB A5 91 06 12 AD
 11 01 AD 39 08 CF A4 E3 2E A3 46 7A D6 A9 60 82
 0C B5 4B 2F AD 4D 45 84 6B EB DE 9C 1B 49 35 54
 C9 A9 9A A3 09 DF 0B A4 A9 05 05 45 F6 DF 17 85
 0D 7A 0E 69 BF EF FB 19 C3 F2 21 E2 5C 40 DA F5
 EE B0 70 DC 59 CD 54 C8 45 0B 22 3D 96 87 47 0D
 6F 07 3A 0C 42 35 2F AF 1C FD 0D 4E 67 AD E3 31
 B5 CA 98 63 16 DD AA 02 45 27 7A 9F BA F2 4F A4
 C6 44 0B 53 F5 96 94 EE FF DB 73 D2 75 38 75 9C
 AB 6A 1A F8 EE 1B 0A 21 6A 42 84 45 79 86 E1 A4
 67 55 28 9E 33 4E 2E 49 20 67 A2 E8 2A BC 25 AE
 04 FD DE 6C EF 0C 6A 19 27 36 19 20 26 BC 95 F7
 41 82 1E 1C F6 AA CF 73 0B 1F 56 A7 D9 F3 11 A1
 2A C4 4F BE B0 4A D3 2F 47 D2 0B CA 59 C3 D2 A1
 6A 9B 42 79 39 00 0F F1 B4 78 BD EB FE C1 A4 3E
 64 E0 76 F5 E6 1B 9D EB 20 8B A7 DD CD A4 DF E9
 04 24 37 D1 D6 F9 66 C6 7D 7C F5 2B 69 64 BB 25
 98 45 A3 24 92 21 A3 2D 35 72 A6 3B A5 93 E6 F2
 7A 78 3C F1 4B 9E 9F 16 40 53 7B 62 A8 25 DF 3B
 1E 1A 7E 5A F9 C0 87 B4 F8 9E C6 C8 A3 AD A3 B3
 F1 4A 97 D5 7F B1 50 DE 7A ED 0C 2B 09 27 7C E0
 AF AF 9D 4D 13 C1 A0 BD 9C 6B 5A 93 D0 8F B9 09
 33 48 76 FF 3A C5 37 4B C8 06 CC 2F 7C 3E 73 56
 B7 B1 B0 14 84 D6 19 A2 60 BE C4 60 DC 7D AE 85
 8B 19 F5 34 B0 DB 12 9C 16 9C EF 2A BD B4 28 CE
 CC 99 09 89 80 C5 D6 5D C0 76 AF 59 AC 08 2D CD
 9C 33 40 91 75 72 A3 85 56 6E F5 E9 15 1A 01 7C
 C6 2A 07 40 36 4B 7C 72 85 F5 BD 74 9C BF F5 C8
 E3 B9 89 DA 24 70 23 7C 7F F2 98 9D 0E 77 1E 98
 35 27 D3 5F B4 C3 07 E7 B0 11 B3 54 39 23 BF EA
 00 0E 98 2B 93 B0 E4 8A 25 08 F6 4C 75 FA 15 53
 F7 7B E8 CC 09 D9 0A D4 9B CD B0 7F EC 82 32 15
 01 C5 CC 0B 34 84 6C 94 9A 73 94 53 5A 1F 0D 37
 B1 9C AD EB B8 CF BB B0 50 71 B6 8C EC EC 5D 46
 F8 7C 93 58 97 04 CD F0 BB FC 16 A6 6B 59 C2 B9
 5A 64 C5 7C E6 0A 61 0B BF AE 60 0E EB BD D4 1F
 D6 B0 A7 25 54 E4 15 9B D1 1E 76 6E 07 67 8B 06
 B0 1B DC BC FD B8 D9 72 17 68 4F EE AE EB BE 07
 32 72 0E 9F 90 BB 5F 50 B0 65 59 6B CC FB 7E E8
 A8 88 5F 37 79 AA F1 EE 4E 41 14 E8 6C 2C 99 5E
 21 9F 9E 6C 79 E2 64 E2 EA 92 0E 45 BD EC EC C9
 94 4D C8 58 9B 23 05 92 8C 9D EA 96 16 4B 16 9A
 2B 18 60 33 7B FF DD 77 D3 62 65 98 AD F1 9C B3
 4C A9 95 8B 52 B8 48 93 01 D8 61 2B C1 B7 C2 77
 FC 54 A1 CA 71 58 5F 34 01 A5 C9 E7 64 27 8B 56
 0F 43 9C 49 C0 33 64 44 61 5D A6 C1 72 E8 EA 40
 B0 88 D0 FE 00 6D E7 A7 40 34 CD 89 6D 92 96 C3
 E2 5D E2 86 E2 A3 54 98 E0 A3 A0 6D 91 F9 8D 15
 AF 4F B7 6E 7E 6C DB AE D4 CF 37 30 85 B6 CA 81
 95 42 41 E1 9E 7A 6B E4 84 10 C2 1A 3F 0E F4 51
 FB 4E D2 0F 7E 92 63 6D 78 7B 68 5F C5 13 46 BC
 8C A4 FC 62 93 C3 1D 57 D7 59 50 79 23 3B 02 EF
 83 16 7C DA 75 46 AC CE 4F 15 85 4F 7B F9 39 1A
 09 5A CF D2 89 40 ED EF 48 D9 81 F5 ED 2B 15 7A
 4C 4A DC A9 69 F5 D3 B0 1F DB 3E 3B 08 76 A0 F4
 28 EC F9 4B 0E BD F5 16 C8 B8 CE 34 A0 49 B6 92
 8C 3B C0 00 21 93 8C CF 52 50 AD 63 BA A2 1B 51
 F2 2F CA 98 83 8F EA 16 48 CB 60 C5 23 1F C0 20
 00 A1 ED 8E 86 37 CD 2C 35 27 27 27 2E 5C 29 85
 51 2D 21 63 11 51 2A 46 F8 CF B8 49 29 F5 B5 A8
 08 B2 E4 67 89 98 78 C5 14 3C 30 9F 79 96 C0 38
 69 7A D7 AD B0 1F 6C 57 E1 43 F3 EA 8E A0 DA EF
 B5 C6 62 30 2D DB 20 5F 25 9D F5 02 58 AE E7 BA
 26 25 38 17 96 6E EF AC 4F 67 60 6C A4 93 D6 04
 E9 AD A3 CE 27 A3 C9 65 88 19 18 FA B0 3B 33 A8
 E7 86 AB 93 9F 19 AF D3 40 B0 42 5A B0 2C 52 D1
 DB 07 B9 13 66 D2 0D 19 A7 51 6E 15 1E BB 79 2A
 BD 53 67 26 6F 73 3C 60 0D 0B 30 3C 99 DD 58 82
 1D 66 15 45 D1 D4 F1 39 24 C6 DD 60 E1 CD B2 A2
 56 62 3D 28 66 79 6C F4 AD 9A A5 A1 5A C7 F2 3C
 BF C7 8C 54 CF E6 7E F6 9E 06 90 67 EB D8 BD 74
 63 AA EE 38 7A 33 EA 8B 0C 06 14 FF 63 F5 4C 48
 DB E3 B0 6C 6B AE A4 44 13 B3 93 66 D2 4C 90 EA
 06 EC DA 74 5D 11 BE 8E E9 FF EB E3 C2 EE A3 AE
 76 DA 74 8D 1A 3F E5 25 0F 5B 6F 65 6E CF F9 E3
 0C 3D FC 79 6E A3 0A 82 24 93 60 D9 80 80 89 5B
 ED 20 43 4B 8E 9F F6 62 3C 5A 0E B6 6A 4A 8E 2E
 E0 09 0C AA 38 08 B0 A4 F1 02 F7 C7 71 0A 5F A3
 1B CA 55 0F 6C 55 4C E7 4A FF F9 EF 57 8C 1E 3D
 95 D2 9B A1 7F 69 C8 A2 C4 3D 2E EC 88 24 69 B3
 FE 49 99 BF 64 51 41 34 85 D8 18 59 8E B0 B5 21
 A5 3B 39 F9 18 4E 65 C5 08 A2 A7 EB 4B 23 43 7E
 52 7A B8 52 96 3B 42 8B 4B 8E 39 7D 00 12 D8 F3
 B9 93 34 EA 20 57 19 10 BB C3 3F 0E 93 D5 79 79
 D0 91 25 96 A7 33 B7 95 03 30 B9 73 17 EA C4 D0
 F6 C2 FE 1F 2B 31 77 67 FB 68 89 12 9F 0A 0E 46
 2F 04 F8 85 95 E2 A3 C5 3A 70 4F C4 3F 58 B5 A5
 EB E8 8F 16 92 3D A0 3F 7F F5 7B 4A 16 3A 6A 6E
 1D EF 2E E4 51 89 D3 DA 6E EF 3F 46 9A 7C 2D C6
 D3 88 03 0C 84 E8 89 DF EB 17 98 F5 2F 4D AB B8
 45 A8 BA 1F 30 BE F0 92 F9 4D B7 6E 3A C7 7A 17
 F2 38 CD 39 FA 59 29 39 A5 14 FA 09 D5 43 EF 40
 15 F2 64 1D BB FD 21 0D 8E 72 A6 12 7B DD DB 07
 AB 16 4F 35 E8 D9 26 A6 AF F0 85 6F CA 36 AD C2
 DB 30 69 D1 48 7A 2C 76 D3 DB 34 25 13 AB 58 DB
 8F FE 09 5A 9E 6F 05 2E CC 28 9A DF 83 7F D3 62
 88 AB B3 C5 FA DE D9 48 C3 C1 79 61 E3 36 93 BE
 B6 CF 5B 9F 00 B3 FB 6F 59 AB 82 9F D9 60 40 45
 0F 4F 65 D7 48 88 3E 94 6A 52 63 3F B1 5D 8F B8
 37 6A 7C 68 5F 95 98 DB DA D9 33 FD A1 E3 BB 03
 2B CE A8 72 B3 5B 4E D9 45 E6 98 04 C4 28 D5 B6
 27 0D 1E 3C D2 05 04 16 33 EC D5 0D E4 90 18 2B
 89 C0 AB 8F 03 62 12 DF A3 77 8E AF D3 75 08 93
 B8 9D B7 E2 78 08 EA 51 25 89 84 44 A6 F4 3E DA
 3B 97 CF E9 17 44 EC 0A 8F A7 C7 CA DB A4 24 35
 65 68 6C 99 30 21 50 CE 7A 91 DF C0 28 87 8D 80
 76 61 F2 A0 C9 1B 48 2D 83 BC 4E 24 F0 DC D1 8C
 B0 F1 27 0E E3 D5 74 D2 EA E2 0F E1 B2 C7 47 DA
 46 FB 7E 38 A0 AE 8B 17 E2 64 34 2B E8 2F ED 55
 97 25 5B E3 10 45 35 7D 6F 01 F0 5E 77 9D 56 E5
 F2 E9 80 8F DB 73 D9 A5 02 63 E2 08 61 B2 81 35
 88 AF 9C 07 71 C3 E8 82
* End 2283782761 2962561603