* LTspice Encrypted File
* 
* This encrypted file has been supplied by a 3rd
* party vendor that does not wish to publicize
* the technology used to implement this library.
* 
* Permission is granted to use this file for
* simulations but not to reverse engineer its
* contents.
* 
* Begin:
 2E BD 9F 29 47 D3 3F 2B B7 B0 20 37 01 B3 21 AD
 9F 14 DA D1 40 9A B3 B2 EF 87 22 F8 9D CB 3F 66
 06 C2 F9 55 9E 1D 4C 99 AA 67 8B 79 1C 88 C4 F3
 C2 8F 8A 4C 67 45 D2 B8 0C B2 FB C5 BA 0C 55 46
 E9 6F EE 07 E2 31 91 37 D7 EB 9D 60 C6 EF 17 74
 67 61 9C 7D 9B 04 C1 2E DA 89 D2 AF F4 C5 20 A2
 1B 48 93 B2 D6 03 14 C1 04 5E 7A 10 AC 44 4B 2A
 6F 4A 91 31 3C 11 F0 1B DB D4 F1 8E 71 7E 02 CF
 6B 4C DD 51 A8 5F 39 AC 19 25 80 B3 E1 B4 3B AC
 24 25 41 BB ED B3 2B 8F 42 BA 09 65 C7 12 F2 B1
 00 FE 59 D1 AE 82 BD 7D D5 45 FE 3D A5 59 09 9A
 20 FC E6 12 9C 82 ED 02 FB 3E 42 D6 F6 80 87 C2
 77 0E E0 10 96 E3 63 60 72 C7 FA 66 6E 21 FA 99
 6F 27 3A B3 38 39 FE 9A 27 18 92 A8 2B 55 83 6B
 4E A7 A0 72 9C DF 64 8F A3 FA AD EA 76 C6 19 B9
 A1 30 CB 9F 4F 2D E4 F9 22 D6 7B 86 F5 A7 1C 7B
 49 3B 23 99 3E DB 4D 99 D0 02 4D F8 12 AE FD 78
 BA 8B 9D 40 84 CF D4 AB D5 19 BA 9C 6C C1 3D 97
 6F EF DC 03 34 7F BD 4A 8A A7 4F 69 3B 51 61 E7
 BA 6B FC 4C A9 52 D8 F2 11 5A B8 F5 7A B7 00 1D
 EA FF E7 7D 2E A4 2F 98 0F 76 6F FD 9E 24 52 63
 0A 9A A8 2F 4B B9 1F CC 8F AD 96 E8 2F 42 76 24
 66 7E 11 3E E1 3F FF 37 10 B9 2E B7 C4 0C B2 4D
 28 1A 26 71 60 FD 01 4B 5F 55 36 A6 2B E2 14 AB
 50 DD B9 0B 80 1E 50 E7 90 BE 64 D4 99 37 C8 23
 8A 15 C5 7E 07 5E A6 6D 52 D4 49 7B F6 38 B5 23
 9A 22 7F 98 6D 54 43 D8 A0 54 2E C3 A9 2C BE DD
 E1 3B 47 2C 3B A9 1D 7C A7 05 A2 44 EA 27 D7 BF
 19 6E 60 77 B7 25 1F EA 39 DA 1F BB 3C A7 B7 E3
 E8 27 5B C9 51 01 82 90 93 E6 8B 73 4F F6 84 56
 85 40 83 74 B7 72 C4 01 B5 A7 C2 2C 0D 96 FD 2A
 AD 0C 86 A2 25 05 25 55 21 0C 8A BD 26 FE B5 6A
 1C 84 86 27 59 26 76 54 DA 37 A3 75 B2 44 CC 8E
 7B CE 00 65 83 83 57 1F 50 55 2F BF 87 18 97 52
 2B C4 69 E0 1B 10 C9 91 B5 9F E7 A5 DB F9 AB BC
 A7 EC 61 80 F5 E5 A0 09 BF FF AB E3 4B 42 D2 02
 20 9C F2 BE DC 26 79 AC 97 35 32 FA B3 AB F1 DC
 D4 47 D5 5C 5C 38 13 A7 AA 7C 14 92 CF 8D A8 21
 65 23 91 A9 CB 9C D8 82 2B ED D3 AF CB 6D 84 57
 CB 8F C2 0E 92 FC F3 8C 96 46 AE 7F 3A 7A D8 4D
 F3 92 C8 96 D3 A4 92 15 27 4F 02 AC 48 40 3D 98
 4C FB CC 92 2A 72 03 F1 93 F6 2B 09 B9 8C 59 A6
 58 B5 A8 2F 59 88 9B 6E BB 8C 52 1E 2C 08 ED 84
 8F 3B D2 D0 97 E2 8C 09 0F 9C 02 BE 66 FF CC A0
 5F D5 8B DA 77 5E 74 07 82 C0 1A C1 42 6D D0 BB
 53 48 45 C3 80 29 51 88 CC 1F A0 DF F7 A8 44 AE
 82 26 51 79 6B E1 57 5B FE D0 57 7D 59 51 7D 41
 CD 69 F1 B0 65 06 92 0C CF 8A ED 6B 2F A3 76 C0
 5D C3 6E DA 24 2F 61 61 F8 22 D2 4D 07 46 6D 05
 8A E1 4E 7D F8 9D F1 F6 6C FC BE 5A 6D 75 05 FB
 3D A9 B1 BF 3A 5E CF 3D 16 39 2E E7 BB 99 5C FF
 05 06 C9 1B 5F 22 2E 1A 25 FF 0B C6 C8 53 A4 49
 4B A6 E7 7D 97 0F 41 67 8C 08 D1 21 9D E0 C3 EE
 20 82 03 89 E8 E6 E0 F1 84 49 71 A4 0A 2E C8 FA
 C2 1A 8D 59 D9 03 44 67 C2 E5 EE CD 13 C8 FE A6
 83 2F 0D F4 AE 4E 90 D3 B4 81 C0 89 5A 76 16 F4
 5A C1 47 68 FD 43 6C 50 95 AE 48 F4 D3 7F 95 94
 2D 41 7C 68 1C DC 00 65 D0 0D 3C CB DC FF 7E 85
 48 31 F1 75 D4 DC B0 40 FF 3A CF 59 5B 15 27 12
 8A 94 05 A4 F8 71 69 EA B8 26 E0 D9 30 2E 6D FE
 3E 52 55 7B C6 73 4D 59 A7 77 0B 93 E3 A9 B2 79
 7C 04 BB 86 78 B4 39 6F A5 38 D8 31 29 4F 32 3C
 9C 0B 75 C2 37 B3 72 49 A3 D7 2A FF 58 79 63 B1
 CE 4B 3F 6B C4 20 EC 8E 6D BF 45 A0 69 3B CC 11
 8F 45 72 AE 88 B5 5D 94 AF 8B 3C 62 71 40 93 DF
 2C C3 1E B2 D3 E0 4C C3 B1 B6 A8 A4 F4 19 5C 62
 59 2E D0 47 00 A5 50 F7 DB 9E B5 3B 37 20 9A E8
 26 8D 17 61 72 B0 4A 7B 7A CF 67 79 F1 68 8C 8D
 01 9B E1 29 9B A8 0E 52 E6 41 DC 72 41 32 8D 34
 A3 61 AD 2B FD EE ED 8D 39 21 1E 25 B3 FF 56 D9
 DC CB 58 12 99 6B 25 0F 6F 7B A2 E0 BD E4 3E F5
 F1 16 F0 D6 F4 29 D8 A5 5F 44 36 E9 9F B3 AE 9D
 38 2F 64 1E 6F 40 AA E4 57 16 A5 57 02 33 59 C7
 3A B4 F8 7A 49 BE 48 E4 A5 85 B1 3B EE 59 3C 9C
 42 83 8A D5 26 1F 48 2C 08 16 06 C8 DF B5 11 D5
 7F 9E 08 48 D6 94 E9 62 BF 9E E6 A4 DB AD 06 44
 2C 0A 7D 23 C0 A0 80 D2 C7 52 6B 94 30 A5 88 16
 C8 BD 33 CB 5D F5 A3 45 D9 2A 94 0B C9 0B 4E 3A
 7D 40 CB 43 88 50 DD 03 AC E8 30 28 67 FA 69 C4
 B7 96 DF 36 AD B1 2F BC C2 76 4C E0 27 1D E6 9E
 ED 13 1F DD 6C 05 B9 9B DE A8 9C 45 10 DF 91 AD
 E3 28 A1 8E 78 01 6E 6E 85 97 4D E1 25 C6 33 72
 37 31 98 9D 02 95 36 43 B9 65 FF D4 34 07 27 DA
 89 93 71 3C 7B E1 44 52 A6 C6 D5 34 EC 71 61 41
 5F 6C 3D 4D F2 5E 6B 0B 06 6F E7 E5 42 0B C4 B6
 C2 86 E6 DD 9C EC 19 5B 86 4B 4C 4D 3B 8E 21 5A
 0B FF DB A9 23 D8 40 B8 89 C1 5B 4D 3B 42 9B 7E
 D6 A5 0B 31 14 67 C1 33 18 1A 0B B3 FA 7F 12 F4
 2F BD 49 D9 16 B3 E7 C7 B8 C0 B5 42 86 3A B3 06
 AB E8 90 51 B4 B0 A5 1C DA 5A 9E 92 6C D5 2D FF
 3E A9 DE D1 E3 AF F9 5A 57 94 94 C9 DD 61 90 2C
 8B 0F F9 D4 3A A5 AF 37 B6 D7 F4 A7 E6 8A AE 1A
 49 F1 17 A1 DF 63 2F 8D 5E 00 87 DD 8E E1 EF 40
 74 98 9A B3 0D 9C 00 22 A6 65 55 C6 D5 FC A5 9D
 9C CE 12 A7 2B 58 C8 5A B3 32 3E F3 A8 77 C0 CF
 45 EE 74 77 B4 96 B4 29 B4 F9 16 0B 84 05 16 20
 C3 DC E2 97 A2 1A 5A 5B B1 91 19 D4 4A E7 55 AA
 0A DE 36 8D BB BB B6 1B DF 41 C7 BD E4 C1 39 69
 36 20 86 4D 3A EA 15 FC 8C B7 B7 A9 23 D8 3E C4
 30 D4 A3 CA 47 35 11 48 70 A3 FF 41 2C 36 F7 8E
 68 F4 BB 0D 1A E8 F4 C3 F3 E4 15 D4 66 19 96 33
 D9 2D A2 20 D3 AB 34 E9 3C C4 00 97 6F E8 89 0E
 9E C3 6A 33 E3 7F 1E F0 9E 67 69 4D 34 4F E4 D2
 F1 0A C8 04 D0 58 09 17 7D 89 28 3C 3D CC 0E 99
 C0 0F 74 2A A1 30 10 42 D7 F3 CD 7D 94 F0 B0 96
 F6 39 DD 12 8A 15 83 2C F5 30 8F B2 2C 73 8B 13
 77 A8 5D 13 8A A0 61 34 EF D9 72 D0 41 CF 34 08
 2C 81 0E AF 3B 9E C0 2E D5 91 B4 7D 04 99 00 CE
 BA C2 81 7F 50 86 5F FD 07 03 8D 66 08 20 FD 3C
 74 53 0B C4 0A F1 29 26 5D D4 24 FB 03 97 09 B7
 88 F5 A0 D5 F5 68 98 7C 9D 81 EE C1 EC 23 29 8B
 49 2B EC A5 91 97 A1 4C EB 5A 5A FD BB E0 FD 65
 8F EE 60 9B BD FE 3B 64 02 3F 2E 97 DB 0B A5 BA
 BF 4F 0E B8 F8 84 CD 5C 12 19 A6 3C C9 4C 07 3F
 1E 51 88 2B 60 C7 F1 1A FC B2 32 D8 1C 62 FF 29
 EF 2D AA F3 14 88 5B A2 0F 30 6B 55 7F E7 6E 18
 BB 31 A3 E1 01 03 EF B6 1B 55 3D 6B 15 88 38 0E
 A2 30 24 66 DE 1D 57 06 CE 69 6F BC 19 7F AA 52
 AE 18 24 FB 12 C1 B7 7C 90 9C 1F CC F9 E1 5A 8D
 43 B5 61 09 45 BD 2E DD 9B 93 76 62 C8 DD 78 BD
 D5 BE D0 21 77 5E E7 6C A5 D0 1E 2D C1 98 26 B9
 A9 7E 91 32 00 C9 6D E1 48 F0 93 6B 63 13 73 01
 EF 81 BF F9 34 C9 9C B1 62 B4 3A 58 D3 EF FC 09
 B7 C2 EE 2C A9 05 E4 2C 76 8D 9E 30 DD 4A 7F B0
 DE 83 3E F1 0C 36 2F 1E 94 0D 81 06 E1 42 FA 13
 02 29 1B DD 28 C4 FA 4F D3 67 3B F5 20 86 67 0C
 3C 81 A3 20 2C 46 BC 07 F4 C3 A2 4A 54 9B 48 59
 CC 00 40 88 84 E3 2E 5C D9 E4 F9 44 FB 53 39 2F
 7A B1 5A 1E 8E 2A D5 6C 73 A3 69 C7 4A FF A9 03
 6A 35 C4 9F 4D 2F CB 82 96 4C 2D B7 6E 72 5A 0E
 E2 67 97 AC 57 CD 3B 81 29 2F A9 5F 5E 53 28 D8
 17 93 05 5F F8 EB F2 39 BA 9C 68 A2 CC 62 C4 F3
 2A 19 80 82 B6 14 E6 54 AD A8 99 14 1E E8 06 A0
 13 C0 F1 F0 29 F4 BA 65 66 01 7C DA 44 B5 66 8F
 FE 68 69 A7 05 CC 10 95 76 F1 52 44 0F 0F D0 09
 59 9A 6C C3 6E 65 14 59 03 C4 21 2D 1A C4 79 07
 2E 29 80 EA 70 2C 2B 28 B8 56 3C C0 C6 B2 F3 40
 92 6B E2 13 7B 4C B6 D9 15 FB 0B 1E 79 D8 B3 56
 83 49 9F 44 F3 BA F7 89 3D 04 F6 D0 D2 A8 DA 05
 34 08 F3 63 8F F1 4A 3A E5 FA C0 FF 10 3C 81 8D
 ED 8C 47 43 C4 3F 2E DF 17 2A 09 92 AA A5 AE 2A
 30 F1 8F 37 AC 0B 2B A3 4D 63 A5 1A BD 3B F4 67
 3C F1 87 24 0E D6 6B 42 85 3E 1F DC E0 01 9A 8F
 A2 1E 3B CA 11 6F CC BF E0 5E 78 27 62 A7 84 1B
 0B 88 45 6F 2C DD 64 CD AC 18 DE 7D 3F 74 B8 CD
 FE 33 14 9E 94 B7 9D E5 D0 F4 D4 4D 47 83 C4 B5
 D0 B5 D2 C3 BE 7A C2 C4 E5 DB 00 DC 84 62 59 4E
 48 CF 13 54 DA 6F 10 02 7D 38 99 4B B0 6F 91 88
 15 4D CC 60 9E 64 66 AA 3F 54 2E 72 C2 16 F4 FB
 01 F1 A6 BB 6D A9 C3 79 DE CB 83 E5 4D A8 DC 3C
 FF 17 D9 FC 50 52 69 2F 34 BE 19 4D F4 3B 03 08
 36 85 43 CB 29 75 49 F8 B7 95 B1 CB 34 AC F5 79
 77 B3 8B F2 47 1E BF 7B 9D 2C 4D 6F F3 AF BC 21
 1C FA EC CE 45 AB 91 90 41 B2 57 96 73 DB 4B 25
 0D 08 A9 83 18 75 C9 53 72 4A BC 22 06 75 E6 D4
 6B 0C 82 B4 DA E0 27 A9 EB 18 61 C3 C5 04 31 2C
 35 E4 8B 44 B6 79 C2 A1 FC F2 D5 69 B2 BB 84 98
 A3 B0 5D EE 0B CD D3 29 B1 64 2D 37 18 C5 4F AA
 EE 23 86 F4 F3 01 F8 DF 41 11 FD DC 6B 5E 7B BA
 25 08 AF F8 A1 A3 BD 86 DE 59 80 61 BF 56 7D 97
 F0 8C 7A C2 6F 93 E9 20 A0 EA 17 AE D6 38 1B 1A
 BB D4 77 0A B4 54 21 EF 3C 81 0A BF 87 30 31 92
 10 26 7E 26 B9 66 6C FE BE 66 C8 F3 07 11 9F 94
 10 58 2A 59 2A D0 96 9C E1 3C 92 91 F0 D5 C6 81
 FE 53 24 D8 F7 3D FB 40 B4 FE 7F 41 BE F0 43 D2
 44 F1 6E CD D4 0C 09 13 51 C4 75 70 C5 AA CD 78
 86 D0 2C 10 4F BC B2 56 97 71 AC 2F E3 F4 81 6A
 C2 EB FC 56 A5 FF 32 F2 CE B1 5C C1 BB F1 1D F9
 3C E1 12 71 10 0A AA 45 E3 47 54 28 7A 2E 3A 4A
 7F DB CE 77 38 38 85 40 F3 6A FE D9 E7 FE 80 63
 E1 D6 A9 84 BC 81 93 D1 D5 8F 92 E0 23 1E AB AB
 84 4D 61 5F D7 F1 C5 6D 57 D1 44 D7 DF 9C 34 90
 04 41 BE CF 76 00 0D BF 63 C4 9C 98 C4 F1 E9 38
 F0 12 7D 05 44 D7 92 83 26 73 FE 73 F5 B1 FE 23
 DC 26 3F 57 6D 08 D1 05 74 75 88 48 98 3F 53 C1
 BC 55 CA DC 32 25 11 E6 75 B9 E1 AF 88 A2 4B 3B
 C8 03 81 DC 83 25 A4 E7 C4 95 1D 05 88 63 E1 FF
 87 68 B4 3C 93 E3 A7 78 F8 5F 37 BC 64 32 39 16
 96 3D FE 49 ED EF 13 49 5C DD 5F 6A 2E 56 C1 F4
 04 F3 26 DC AC AD 5C 38 60 56 05 FA DD 6F CA D9
 25 59 B0 1F FA A9 62 5A 17 0C 0D B2 9E 00 72 2C
 34 A6 22 05 6C EE C6 2D 4E 32 D8 98 BB 3E 43 85
 56 3E 05 0A BB 90 09 69 B1 C4 67 2A 80 DD AF 87
 36 3C A4 21 A0 3A D4 21 7D 49 47 F9 46 F6 84 3E
 62 30 40 D5 78 16 43 A0 13 AC 8A E6 68 A4 90 D4
 2E 72 3C AA D9 B8 58 FE BD 43 3E DA 92 37 AD B5
 99 9C 89 6B 98 93 9A 60 21 48 9E 5A 79 94 58 F5
 46 8D 90 23 FE 7B 0E 11 B8 8B 3C 4B 25 87 E1 20
 43 51 BA 07 9B 45 91 3A E2 34 AA 03 BC 67 2F B1
 71 4F 02 2F 11 E1 86 4A 8F 36 F0 02 67 5A B6 58
 B3 01 49 C6 07 8D D9 9C 4D 34 94 AB 01 B2 BE 6C
 73 19 92 6C 18 79 FF F5 7F 43 2B 5C 82 9D D8 3B
 DA AF 8C 10 60 D2 F9 4E 32 A9 86 31 55 35 2D 32
 B7 F6 14 0B A9 92 1D 27 1C FC 6E 93 EE 7C 50 0A
 97 3E 89 DA D4 22 23 19 D7 30 83 CE 13 A3 4C 13
 73 ED D0 68 BC 7A E9 DE BE AD 2D 63 71 F1 17 4B
 E6 9B 7E B0 51 40 47 07 18 47 16 25 ED 65 60 5E
 04 2D 33 4A DF 0B D4 F3 82 E4 72 78 A4 F7 5B 5F
 33 16 F5 01 D9 91 CE EB 78 85 42 05 30 35 6C 74
 4D 8E 38 88 4A 24 39 D8 9D D9 75 E0 23 AE 5D C7
 76 A1 31 23 22 10 44 69 CC 17 4B 22 EC 98 F8 82
 49 42 AD CC B4 FD A2 36 9B 4B 1F D0 31 77 98 CE
 19 08 92 91 BE 38 4C 35 1B 5E AA 92 59 A0 C3 E3
 BB B5 E5 64 92 4A 16 7C B8 14 CD 88 55 55 F4 52
 F2 1C 62 D2 9A 37 6D 5C B4 16 DA 59 49 58 1D 3E
 DD 93 80 0D B0 4D 05 FF 41 AD 31 51 BB 91 44 74
 E6 BB DB 3A 6A 1A FD 34 70 55 B7 92 09 E4 F0 9A
 B6 66 BB 2F 16 38 B6 CF F5 60 36 15 40 00 6D BB
 0A 56 B4 EB CA 6A A8 82 96 83 B1 2F E6 E4 EA 67
 38 D9 E0 3B 98 B7 2A 34 D1 47 6C CD 2D C0 58 73
 C9 81 C8 22 16 40 13 D1 E2 14 F6 B1 D2 C9 D9 6E
 52 AB 4D 91 0A 6C F0 A8 87 AF 26 62 27 EC 1C 89
 27 D9 0D 6E 97 C4 10 F4 AB DC 68 2C 92 0D D5 78
 7B D9 70 9C B8 E8 10 B8 59 41 40 20 8B 04 0A 7A
 A7 04 21 EA 26 95 8B 5C 9E 27 87 04 81 2A 43 5C
 64 0F 6B 26 24 DC 83 E3 13 D4 2E 54 FC 95 CF 2D
 35 FD 04 F4 0F C8 3A 4B 72 8E 66 94 E9 F2 0A 5B
 F3 A9 8B 34 EF 13 E6 F6 CB DB A2 B9 8C 03 A4 65
 D6 27 9C 44 7C 7D D3 1D 3C AF DC 6B 8C B8 DA CC
 A6 BF 9A 99 22 DE 81 92 5A D1 B4 31 4A 87 02 4D
 9C 78 C8 94 FB 89 5B 17 87 CB 6C CF 36 75 72 66
 EB 85 F7 34 74 55 E9 61 A9 69 FB B8 23 7F 2C 36
 49 11 78 49 96 CC B4 7D D4 95 43 DC B5 13 35 97
 F0 D3 1B 40 48 3D CB E5 45 B7 0A 6C 1F D2 2A B2
 A2 0D FA 5C EE 1A CA 1A A3 BB 31 E1 83 9E 86 4B
 BE 0F 76 23 1F 00 41 33 07 0B 2D 3B D1 F2 DC 1E
 48 D5 1D B3 92 5C 24 39 A6 1A D7 A1 E4 FF 08 5D
 CD 87 DE 3D C9 2D 23 F0 80 1E 74 36 3E F9 08 7C
 06 07 3D 9C 4A F8 31 8A 14 34 0F 75 D3 C2 7F E8
 18 30 25 BD D0 4E BA BF BD 15 D7 6F 16 52 70 CF
 15 B3 33 4F A6 FB BF 1C 71 8D CC 15 25 3A 20 8B
 37 2F 34 17 40 8F 34 FD EE 9D EA 1D 9A 5A BA 49
 23 4D CC A5 E6 56 9B 78 92 E0 CC 46 5C 67 7F F7
 36 FD F8 AF 24 2A 57 8F 0A 4D BA 86 83 A1 A5 1D
 48 BF 57 7F 00 1E 1A BE 7E 97 6D E5 7E 13 54 0D
 53 A7 A0 EB A4 B5 82 D8 45 10 4E 3A 41 AA 7E 4F
 0E E6 4B 02 10 67 98 10 A2 ED 05 1A 6E C2 76 D6
 45 FE A0 4E EF 12 FD D8 C8 D2 E9 6C F0 97 38 C3
 55 1C 9A EA 4A 9C 93 7A 13 05 01 52 C3 4D 50 B2
 C6 62 A5 99 A2 97 D8 A0 6F 5A 9E 0F 79 BE 4B C9
 D6 BD 22 DB 9D 88 80 BC 00 3B 9F BF 69 52 A8 B8
 B5 96 DE 23 37 32 3A 3A 23 75 2D 04 93 22 46 E0
 B6 63 C9 C5 7A 98 C4 4D FA E3 76 5C B2 72 0C 2B
 FB D3 95 7F 43 E5 90 E2 ED 26 E7 6B B2 78 7A 49
 0C D9 53 06 06 E1 31 0D 1C 4F EA F2 9D 4C 51 9C
 48 A8 AC 52 35 11 A1 AD 71 57 9B 35 6F A1 4D 06
 B1 C9 DF 6C 31 2D F6 DF 50 07 24 E4 6A 43 CF 41
 6E 0A 25 96 5D 7D 90 DE 52 C1 19 BE 13 50 D6 10
 57 E5 09 C2 53 F8 C8 86 0A 2B 2E B0 83 0A 4D 63
 60 27 4E 29 17 7C 52 3D 14 D3 32 B9 82 4C BE 6E
 26 60 78 14 B2 3F CD DE F5 B2 16 DD 03 A6 D3 16
 A3 20 30 8D 4E 6A 5E B1 3D 29 AD E0 33 40 34 E6
 64 6F A9 E6 C6 26 9C 9F 55 FA 8F F6 38 43 5C A3
 21 7B 93 F8 77 B3 0F 59 EE 6D C0 59 87 5E EE 9A
 75 29 83 74 F6 34 2C 39 08 B8 0B D2 F2 8B 89 C8
 9B FE A9 DE D5 95 32 FF 4A CC 3E 67 29 BB 8D D6
 AD 5C D7 1B B9 F5 40 B1 4C 2D 4D 4A 14 93 74 B0
 D3 33 9C 71 16 E3 06 5E CA AA 08 63 32 0E 06 4F
 51 11 A0 19 57 A6 4D AA 60 31 EA A9 69 7D CA 68
 45 14 CB A9 4C 37 0A 45 70 58 24 E0 45 16 C8 F9
 95 5A 9C FF DF 80 9F 80 17 64 52 E4 F0 64 6C 33
 E3 8A EF 6D 43 50 28 E2 87 1A C7 5A 87 A1 8F 25
 AA 5E B1 33 F1 E2 82 4E CD 55 46 4F 36 A3 D0 B5
 22 4A 38 E2 66 D1 09 E9 00 FB AD CD 31 AE 6C 89
 4E A8 BF C0 DA 42 E1 5A 70 0F 44 5E 8B D5 66 08
 60 C7 1D 56 7C 4A AC FD 78 1E 15 33 FE 6E 72 02
 C9 3B 59 51 13 C6 9E 8B 6C 3A 26 E1 91 87 83 FC
 CE 77 49 98 0F A2 72 DB 53 1C 58 06 FD 44 B3 A1
 BC 41 AC 49 FC 22 F7 B4 D1 13 E1 39 A2 4B 7B D9
 5E 81 2B 2D FE 1E EB A9 1A E2 45 F1 28 79 F5 F2
 06 B1 BA E1 4C 13 41 F0 C3 58 A5 50 CF F3 7F 61
 16 DC 14 49 A6 6D D6 E9 A9 26 CE BE E5 D7 6F DB
 15 30 05 66 ED 7C D1 D6 24 D7 77 EC C0 29 4F F0
 19 4B B5 EF DA 3D AB 2F 60 11 B8 A4 EF 85 64 C4
 FB D5 F1 5E D1 58 05 42 0F EB AA 94 57 06 86 BA
 DC EC 9C 58 E7 28 84 13 AD 3A DB 39 21 CF A7 27
 3C BE 46 F8 9D 6C 50 F7 32 D7 4D FE DC 37 AE 99
 72 CF 6A 16 CC 3D 5D 57 AA 2F 42 65 52 9F C4 04
 CC 34 9F 18 A6 A7 FC 25 DC C2 24 AD AE B7 AF FC
 78 FF 0D 6C 69 D6 D7 BA 43 5B D6 F2 93 00 9B B4
 9D CA FE 81 26 5F 27 10 22 F7 FA BD 71 D5 20 8E
 29 4B 59 25 25 8A 06 CC 10 07 28 CC 7B FC 71 FC
 0B 61 E4 EC C9 CA 12 40 DB 02 B3 EE F3 AC C6 83
 65 18 BA 48 7D ED 8B 8A C8 CE 86 A6 88 CE 62 E4
 5E 5D 72 ED 23 A3 B6 E0 6A 5F 26 EC EF 2F A7 DF
 D3 9F B1 96 B1 30 4C 67 8B 83 9C 71 8C 86 7F EA
 83 4C 15 1B 9D F4 EE 9A F3 75 8D D6 0D 00 1C A9
 3B 95 AA 02 7B 72 3F AF 33 6D BA 14 63 CB 51 F1
 0F 3D 98 AC 34 55 B5 47 5E B0 22 7E 49 CB 36 62
 84 32 AB AC 2F 3F E9 17 49 6E 4E 5B 36 FB 41 71
 39 DE 18 09 8E 72 ED 38 79 F9 B2 FB 1F 2D AD 1F
 BA E9 32 DF 9B 3E B0 00 D2 D3 C1 C7 35 46 D7 BB
 18 33 CD 19 A1 E6 60 DB D1 A1 57 63 66 7C 73 66
 50 E3 06 6D C4 33 25 CD 13 12 09 8A E9 BB 72 E9
 6A 8F 11 7C 9A C5 F2 92 3E C8 77 80 41 F1 D4 BF
 29 9A 8A 82 F3 30 CB A8 33 E8 3A BB 9B 69 C1 38
 22 BA 31 88 5D 0D ED B5 2B 81 6F 65 3B 76 7B 8B
 09 38 A7 E0 BD 08 32 28 65 7D E0 6A 37 66 3B 1E
 B3 12 E0 EC F6 78 BB DD 63 43 59 88 E3 A9 F5 93
 33 39 C7 2A 66 55 2E 0A 52 E8 C6 4D 97 BB CB 9D
 81 63 15 8C D6 7D 79 66 86 BB AB 62 82 89 22 75
 EA A8 8C 3D 7C B8 5C B7 97 36 FF D8 56 AF 71 3E
 E9 4B 42 20 AD B1 8A 95 1F 24 ED 1B 21 93 03 61
 1B A8 A4 EE 0C 84 DE 9D 55 68 80 B5 EA 77 0C DB
 EF FD 49 83 82 E6 11 7A 79 F7 83 F7 CE 5D 36 22
 9E AE 6D 69 D1 56 2F E0 60 E8 7A 9D CF 38 AB 9F
 15 F9 20 FA EA C3 E8 95 8E A4 E0 CC 75 96 E7 E4
 B8 8A F0 47 FC 51 73 68 63 1E 7B 36 B8 5A BA 19
 E3 13 DB 01 E8 0F 2E 85 F0 8C A3 A3 E0 5B 5F 44
 1E 0C E5 11 44 4C 6A B1 29 29 CA EF EC F3 A6 5D
 F3 A3 23 39 A4 17 CD D4 B5 BF 0C CE 8F 49 C4 C0
 0E 0D 4C 88 A9 3D 9A A4 03 66 88 02 B1 A1 55 1F
 F4 FA E9 4B E5 56 85 CA EA 5E C4 D9 0E 26 FF 24
 F3 95 68 5F 28 22 6C 06 C4 0F 8C 01 B9 55 6A 8F
 F1 6C 4D 30 D1 20 7B 9C DF E1 62 DE B4 88 86 D9
 8B A7 41 DC 3D 13 F1 8C 41 AB 22 33 05 95 61 1E
 C6 B8 34 66 75 C0 99 F0 02 4E 02 99 A5 02 97 4C
 F1 CE E3 E3 E0 B2 71 DB 3C D2 7E B5 69 AF A4 53
 EA 1F C9 87 C4 BD D7 6C AC 81 19 04 72 37 40 4C
 29 5E AD 75 68 99 9A 00 86 C5 DF 03 BF 36 85 EF
 04 1D 79 AB 50 54 CF 69 9A 9E 60 6E 2D 8F F7 48
 45 95 40 B2 1E 78 E9 10 C9 F1 1E 39 77 00 20 7B
 D2 FF 3E F4 A6 F5 40 75 2E DD F9 6A 6C 8C BE 0A
 4A 9B F2 5E F9 33 45 93 29 08 DD 77 4D 7A B2 EE
 CB B0 85 77 D5 CC 48 1E 78 34 C7 2A A7 83 53 1F
 2E A2 62 DE EE 2A 06 94 3A 12 95 21 97 D2 89 20
 15 65 72 6E B7 E8 2F FE CD 69 82 78 AB 23 A6 FB
 AE 12 1E F8 92 DD 3B 9A 66 D0 A9 06 33 B9 3E BA
 75 4A D3 39 1D 95 9C AE 9B FB 31 83 A5 21 5E B2
 6F E9 50 21 0A 18 B4 B7 EC E7 49 0B 93 FE D4 64
 D9 08 08 FD 9C 1C 86 D3 E3 C5 B3 53 91 88 C4 F8
 9A 06 74 77 AF 33 F3 7C EA 0C E6 16 92 CE AB AE
 A2 00 B6 8A 22 3F 44 93 96 8A A8 94 03 62 E5 CB
 81 A2 9E 0C 0D DF 7E 0F 86 8E AB BD D2 5E 48 7B
 D2 D1 11 23 0D 40 B3 C0 8C FC AF C5 72 9D 93 D0
 2E C3 87 BA 6C AE 8E F5 82 53 D8 79 B2 52 05 51
 F9 E5 4E 22 54 2E AD 58 CF A3 50 AD 0A EC 5A 4A
 35 41 6A 2B B6 F4 EC 26 EA 6D C4 8A 61 AC 10 A6
 5B 30 55 D0 BF D2 9F 0E 76 9C E1 EF FC EC 13 6F
 2D AA 4E A9 D1 0D EB 95 6F CD BB 0B D1 D0 74 21
 E3 B4 32 8C C2 30 11 93 BB EA 81 09 7F 4D C6 CE
 58 7A D9 FB 75 5D 0F 90 35 83 3C 3D 1D 99 9C 8E
 02 8E 1D 17 E9 E0 BD F3 B8 8B D9 43 5D FD 25 A9
 CC 9E 77 5B CD A0 CE 39 AD 0B 60 8D 5A 66 64 17
 AB 08 DF 88 8A 5C 76 D0 0A 8F 14 54 A7 CC 59 DE
 BC 36 57 07 7A 48 68 7B AE 43 9B F1 27 BA 40 13
 37 C9 4B FE 92 FC 4B 0E BC 74 C5 DD A2 21 AA E9
 20 70 B0 F2 1C 2A E9 98 D8 06 5E CD F5 7A D1 5F
 E0 E4 39 05 4F BF 3C 06 19 55 C7 00 9D 2A 99 8B
 EB 7A 1D 1F 0E 2A AF 87 5A E1 13 BD 2F 7E B2 F8
 ED 34 8F 01 87 50 1F 73 4D 5C 6B 4E 35 4C 41 E3
 7E D0 B3 20 F8 0E FA DD 92 B3 93 90 06 63 76 7D
 28 1A 6E 1B F1 27 76 56 36 F6 5D 44 91 0D 7B FD
 68 37 05 DF B0 C4 24 B5 62 B6 FE D2 6E 2C D7 6F
 87 9E 6E C3 DC B3 D6 2E 08 20 47 C5 A0 99 83 24
 BA 4D 47 20 75 3B 4F B2 DD 31 51 9B 4B 07 DE 76
 B0 99 63 63 E9 87 32 5E AA 5D 00 C0 7C 6E C9 B2
 9F 3E DB 72 7E 42 9B 9D 13 E7 D4 DE FA 2D 87 32
 35 2B 80 DC 43 C6 21 BD 26 5C CC DB 7F F5 DE 05
 7B 05 B3 A8 8F F8 C9 97 74 29 70 37 7A A0 A4 14
 DD 6C CF 76 75 DE B3 69 78 BD BA B4 4B A6 3F 0F
 C6 02 27 36 87 BA 5A 5D 92 ED C9 D5 50 4C DC 29
 5B A5 F7 4E 94 D6 9B 93 B0 9E 61 CC F2 A6 7F 89
 58 D4 0F 0D C6 9B B4 3D 02 C1 88 AA 34 12 96 17
 62 2C 94 29 E2 F2 28 00 68 7B F3 20 B6 03 C7 6E
 70 06 0B C9 0C 2F B6 02 18 81 C1 53 E9 AC BB CE
 43 9C D8 14 B8 4F 28 DF 7B 63 62 E4 F3 59 17 C0
 22 5F 1C E6 CF 7B 64 A0 5B B2 66 E1 01 08 FE 65
 1D B0 6F 1F 0F B8 9F 23 DC D6 A3 83 FE 5D 6D 01
 67 C9 32 33 19 BC 4C E1 FA BA A3 3F 5D B7 2C 08
 EA 17 36 23 D9 F1 3F 83 84 13 0B B9 8F 60 AA C2
 30 BF 6F 81 2C A3 52 9B 76 C3 82 EA 4F CD 7C 30
 51 20 32 24 77 93 6B 7F CB 24 DB 64 6C F0 DA 1E
 50 26 F3 E0 1C 5F F7 43 E6 4C 70 A5 1C B5 7C 99
 C3 64 2D BD BD 42 08 CF 7D 63 FA 00 5E 0A C5 EB
 C2 B5 76 ED 85 28 3D 3C E5 A0 53 70 F8 54 62 83
 D5 5F C7 A2 BE 12 52 5B 97 47 15 A2 03 BE 92 F2
 F1 DB 48 4C 87 9A 55 2D 74 73 F8 FB 3F 66 2B F8
 AD 57 D5 1E 87 88 EA F9 2B 79 C4 22 6D 89 11 23
 FD BC C5 10 85 40 6A 03 0C D3 A4 68 03 69 23 27
 21 B6 FB 3C 90 7E 6C CD 45 40 AD 61 86 AA 71 9E
 14 52 8F F6 F5 61 DD 1B 86 E6 74 55 4D 6F 28 AF
 6E 40 66 62 0A CA 87 95 26 64 2C 1A 41 AC 91 C6
 0C BF 6F 16 44 75 33 4C 2B C4 AE A5 66 FB AF 5A
 A1 44 D1 2A 95 D6 75 2B A3 FC 23 86 C5 D0 88 A6
* End 837455971 4101664148