* LTspice Encrypted File
* 
* This encrypted file has been supplied by a 3rd
* party vendor that does not wish to publicize
* the technology used to implement this library.
* 
* Permission is granted to use this file for
* simulations but not to reverse engineer its
* contents.
* 
* Begin:
 C7 F9 F5 C5 6D E5 4F AE 09 F3 67 7A AB F3 26 62
 DE AF 42 59 B7 53 B2 69 62 47 47 6B 23 94 0B EC
 52 EC 34 5F E8 2B 30 DF 27 C9 6D DC B3 38 63 DA
 EB 1B 7C 51 FF 86 00 1A E0 05 42 DE EB 80 08 93
 0D F2 C3 C5 48 26 F5 BA 3C 4A C4 82 B3 06 07 3D
 1A 7E AF 03 B0 EE AA 57 6B 3A 52 A7 6E 7D FD E9
 F4 13 B8 5A 43 1C 1C 4E 07 4D 0C 87 A5 55 77 68
 3C 5B 3A CF 6E 24 06 EF 64 EC 68 19 79 83 49 C5
 7E 46 28 F1 80 C0 AD 2D A3 B3 FD 5D 04 DE 42 E6
 9A 96 79 DE E3 C6 3A 44 6E C4 98 5D F8 92 AE 35
 E0 BB EE CB E0 7C 65 73 15 D2 01 32 65 24 7A 49
 CB B2 45 FD C1 EF E6 D3 4C 88 81 4A 8B B2 74 22
 1C 07 3E F9 B4 1A 49 ED AB 51 84 08 F9 D4 C2 F7
 71 FC A9 2F E9 55 68 B0 51 DF 69 D3 4E EE 90 BD
 32 A2 4C 45 42 41 C2 EB 50 6E 2D B4 D4 EB 48 F5
 B9 2F 6E 7D E5 D1 2F 97 76 8B 46 5E 24 87 2D 1F
 6D 46 C2 16 CC 58 1D 75 09 66 26 56 9D C9 9A A7
 0F 0A 4F 0F A0 14 3B A9 58 D3 92 08 46 EA DA 63
 78 07 E9 DA 29 E2 23 DD 20 CD F0 72 36 C6 30 0D
 55 14 E5 93 D8 3A EF 37 9F 11 D3 09 B0 52 3E FE
 95 7C 0A 0E F8 47 28 3D F1 E7 B8 7A DA 59 93 76
 3F E4 93 A1 EF 94 24 1C 5A 34 55 69 63 16 C1 6B
 C8 B9 BC 79 3E 61 F2 97 53 48 D5 46 EE 93 79 52
 99 5A 35 AF D4 0A 40 56 4E D2 48 25 1F 6A 01 D7
 34 9D 84 22 44 F2 DE E2 70 81 05 32 05 06 54 D6
 18 40 8A 4C AC B0 74 E2 4A E9 69 72 8E C8 63 69
 1C C2 F9 E8 B1 83 38 77 B1 17 2E 10 79 EA 65 5E
 D9 E6 E3 0C BD F6 3B E6 E4 64 EC 8B 71 34 67 68
 E5 77 B3 91 D3 09 81 F0 85 E9 7D 30 A0 AE 9E 22
 EF 47 F5 30 1C DB 80 F6 4A 50 F0 E9 0D 2B A5 41
 2C 57 96 E8 92 44 A3 AD 92 02 42 FA 89 2F 1E C1
 FF E3 43 DE 7D A1 B0 16 EC BD 8E 4B 3B 3C 05 9E
 7F 25 8D 64 C3 55 8E C6 7F 19 67 5A 00 0E B1 F8
 AA 10 BE C3 89 9C A4 E7 FB 4D 26 55 59 38 DA 96
 06 32 FC C2 84 80 33 61 B6 08 2E 93 F5 6D 05 95
 00 25 AB 3C A0 55 82 E6 4B 90 4A 28 02 55 5E 57
 FF 51 CE 38 4D 78 83 BD 3C 25 CB CD 39 B4 91 FE
 0D A4 1B 0B D9 A4 1F F0 A2 78 EB F6 C9 10 8F 0C
 1F BB 05 BA E0 53 C7 74 C7 B0 18 A5 A6 79 70 E2
 E3 AF 97 65 80 00 35 B7 A3 1F 6D 22 CB 68 D2 2C
 A5 CE 83 AA 0A 33 B8 B7 2A 4C EF 90 2C DF 46 74
 03 BC CB 94 7F 2C 37 D7 13 9D DE 7E 37 31 F2 60
 EC B7 36 BA 34 FF 2E D6 D4 C0 A9 A7 18 DA 3B A9
 04 61 5B D3 9E D4 4B 0B 0C 2D 5E AC 97 7E F8 AB
 7F 2F A6 A5 96 0E 5A 12 53 9B 55 A2 1A 42 FE D4
 06 E4 2E A3 BF 5C 7C FA 29 14 16 CF BD D8 03 EB
 31 BB 8C 38 1A B6 FC 84 4B 20 94 16 3B 26 27 89
 BC 21 30 40 F2 AB B3 FA 93 B9 64 84 5B A0 2C 67
 68 B4 84 5B D3 09 83 AE 4D 27 95 56 94 D7 87 86
 A2 E8 85 E2 9F BE 5B 9C 2B 03 06 D6 18 48 E1 5F
 11 43 4B 8E F0 78 E3 44 59 79 31 3E D7 AA 85 34
 F7 42 3F A5 4D 4F FF E0 9B 58 08 B6 6F 74 5C B9
 B6 77 BA EA DB 3E 26 12 45 7E 08 D9 A7 93 65 33
 4D F5 B9 18 A8 00 C7 B9 58 B2 AC 05 6F 6E 1E 8A
 3D A5 A6 47 29 CF 3F 4C 2E 0D 3B 53 23 C2 D8 2C
 FA F7 5D F9 DF F9 5F 05 59 37 4F 10 2C C5 06 DC
 FD A1 93 D1 29 97 03 49 74 DB 14 2E C2 A9 90 CC
 7C 3E D5 5E 73 9F 77 D2 AF 64 15 EF 7A 7A 84 68
 35 80 65 05 7E D1 9F 0B FE DF D0 FE A7 62 25 45
 FD AD 2A 5E 3A BA D2 0D 4B 20 32 F2 71 1D BD C9
 0E 6C 0F 3F 19 E3 57 12 76 F4 03 EA 69 4C A8 B6
 61 B3 10 D4 37 E7 E7 DF 3D D7 72 23 AD C6 2F 33
 CC 5D D8 07 3E 7B 95 70 31 ED DF FA E3 EF 81 14
 D1 88 52 02 D1 9A 5B C8 6A B4 73 3A CF 3C F5 18
 99 0E F2 80 5B BD 03 D2 38 C5 DF 94 B9 81 B1 D0
 EA 13 BB 87 D5 70 A7 CE 42 29 D3 81 ED 66 BF 62
 53 AC 62 3E 15 86 FD 3D 4F FE BF 70 26 BC C6 96
 81 D9 1C 07 74 7A 80 47 9C 47 7B 46 7B 3C 32 66
 6A 38 57 F6 7E C8 3E 68 B5 19 D1 2B 8E AB 04 2B
 89 BC 51 57 68 01 4D BB 79 A2 6A 9C F9 5B 93 D2
 67 52 39 AF E9 22 9B 04 E9 33 F1 21 3D 88 C5 A5
 35 74 1A 1B 96 91 BE BF 4E 37 34 B0 89 0B 90 8A
 2E 8B 2D 74 AE 74 71 32 90 BB EC AD 89 BC 52 CD
 56 60 74 AD 2C 4B B9 BB 07 D2 6D 36 61 A8 E0 A1
 F5 C0 E3 07 B9 66 4D 03 55 85 96 92 A6 D9 C7 74
 37 D0 5D E4 6F 2F 32 E1 3C E4 67 F3 57 36 8F 09
 99 2B 54 33 BF 82 6C 17 4F 36 6C 2F 8D 84 01 DE
 AA D2 7E D9 75 9B 47 C9 47 C8 2C 8C EE FF D1 B0
 B2 C2 D6 B9 E9 4E 52 9A CC 34 97 E6 4E EB A0 62
 01 69 D9 EC 7F AB 22 5B 3C C8 CA 2D 88 BD 44 E1
 D6 B1 35 AD 78 63 9F 84 49 33 CA 44 AC 4A 3A F1
 88 DD 32 08 51 F2 2F 22 F8 31 22 8F 68 58 8B EB
 72 24 DD 6B F1 C3 F3 59 A6 ED 91 77 0A CE D5 23
 AD B7 94 90 6A D5 66 CE CB 9C 77 31 3C 5E 1A F0
 03 9D 20 7B 4E 54 51 93 BD A2 56 4F AC 9F 52 97
 E6 50 6A F7 99 C1 88 92 49 E3 AD EE 4B D1 4D F2
 31 2F 08 0F E2 4E 27 E8 46 30 BC 99 BD 6F 4D AA
 9F B0 89 85 25 3C 60 94 BD D4 21 3D 30 B4 03 15
 D1 49 33 32 42 9A E1 54 F4 47 1E 1F 2E 37 B1 0A
 F1 CD E4 D2 E4 1A 98 69 40 7D 9A 33 2D 23 74 DE
 46 5D E4 8E 88 C4 43 29 49 93 88 39 A9 BF 52 A5
 46 10 A7 F5 4C 2F 9B 0A 87 2C B2 45 E1 0C 3C B2
 D2 32 DC 21 53 CB F1 AB 70 C6 28 C0 7D 6C A0 73
 8E EA D2 6D 85 98 8A AE 48 29 9E 0E F7 CD 40 8E
 3B 6F 2E 7A 3B DE 98 6A 8A F6 6E 0A 85 7A BD CF
 50 23 F6 B4 F6 91 8C DD 64 15 65 A8 9B 99 00 4F
 EC 9F 97 8C 73 E3 3A C0 00 F3 FD 0B 08 40 01 7E
 A2 8F BE 47 B3 06 70 C3 36 61 9E 0D 83 97 F3 CD
 1B 1C EF BA 28 81 67 8D 5D 59 99 D2 35 D7 19 CA
 C5 93 D2 90 FA FF 78 F9 4B 16 81 DE F0 A7 42 F7
 1A 93 78 36 BA 7E 25 5D 92 89 9D C3 BE 62 F5 2B
 47 8F F2 9F 72 01 88 5A 65 72 CB 76 27 F7 40 46
 CB 52 1D 56 3A 76 BA C1 07 BA 24 D8 26 9D FB AD
 C1 E6 A9 21 F8 19 60 85 89 1D 5E 96 A9 E9 5C 07
 AD 1F 56 DA FA 61 AF 32 73 F6 D2 A6 52 24 3D E9
 9C B6 3A C4 31 3A C2 D1 51 4C 52 A1 F9 99 B9 4C
 C7 0B 73 B2 50 71 0C 72 EC 5D 8D 7B 99 86 51 14
 88 C3 13 4F 7F 80 FB F9 C1 91 ED 84 D2 44 17 BF
 52 C5 B3 3F 8D 34 F7 20 73 10 A9 28 09 32 11 A6
 DD 27 80 8B BC B3 64 F8 F7 E2 96 D7 CD 32 F8 7A
 BC FE F8 27 09 36 88 5B A7 06 8B DC 3D 6F BD B7
 B3 FD DD 5D 42 A6 18 D9 06 A5 09 CD F3 34 04 7B
 D6 40 96 0A 9A BA D8 EF 92 6C C9 51 FB 72 84 29
 73 C9 EF B5 43 F7 CD 36 00 D7 4E AA F2 D3 66 2B
 9B 7F 6F 34 76 95 FC DD 29 DF 10 4A 56 28 6E A9
 D1 13 45 D1 D1 22 34 38 BB B8 F8 F2 22 4F EE 12
 D1 8A 69 75 55 1E D9 AA 41 10 FD 51 F5 DC 93 4C
 02 93 B7 B3 CB 6B E1 0A E5 26 04 6E 18 BC B2 CF
 3D F2 9F 49 3B 86 A3 81 DD 12 0D 35 0A 31 A0 9F
 6E 68 03 40 E1 6B AD 9F EF C8 9F 70 5E FF AD 45
 15 76 B6 C7 E2 03 F9 FE F1 21 11 8D F6 77 2B F5
 7D A4 74 E0 A9 57 E7 99 77 36 6D C1 39 85 0A 17
 0A 30 E2 B9 29 19 27 3F A5 C4 3B E0 3F FB 6D 1D
 49 C6 24 85 1E 2B A5 FC E2 59 A7 28 8C 52 FB CA
 1D 6B 8C 32 A8 B6 CB C7 B4 73 F2 D6 66 05 25 C5
 C4 AA 0D A9 4C 09 D6 8C D0 71 2A 9A 62 31 EB 61
 18 FB 43 2F 22 28 CA 74 EE 75 56 2C 38 0C 37 3B
 E2 B8 FA 09 EA B8 EE 54 1F 1A 86 7B 2E 24 AD 40
 C1 F1 2A DC CB 57 12 F9 0A 8E C7 46 E4 9B 10 B1
 95 FD A5 51 23 AE 01 F7 36 68 15 A6 66 17 27 55
 AB 1A DF D0 7A 47 4B 50 2F EB 51 14 94 4A DF 91
 9F 29 67 23 42 5E FC DE EE 9A 47 EE F7 AE 57 73
 69 59 B5 AB C8 72 70 3D 0F 2D 3E 61 C8 BD 53 81
 6D 30 62 8B 9A 66 B8 62 80 1F 7C 35 E2 24 D5 37
 08 41 24 76 A0 02 AF F5 4D 22 9D 3D C0 8C AF 25
 7A 66 BF 0E E1 F4 0C 89 28 5B AF 94 89 84 89 8B
 47 CF 57 A1 7F 75 E5 9D 0A 2C 7C 07 29 B9 DB 38
 38 CF DE AF E3 01 20 94 9B E6 05 C2 78 DC EE 64
 D1 5C B1 CB 12 16 79 72 83 96 66 9F 39 78 11 E9
 4C 80 BE 0B 8E 6F 70 B3 20 D6 E3 5D FD 1F CF AF
 96 DD 7C D8 98 21 1B A7 B5 88 2F A1 C0 FB D5 89
 C1 1D 8F 29 B1 A1 DB 3C 22 8A 1B F7 37 D6 16 77
 E0 AB 79 E5 25 E5 90 05 D6 B9 BA 24 E1 DC CF FB
 24 17 F6 60 87 0B F2 51 82 A4 5C D9 C1 39 B1 60
 80 E1 AC F5 AC 1E 25 BA 3D CA 87 D6 91 FD 8E 44
 98 70 89 10 2F 6B 90 42 40 05 DA 41 60 A4 18 2F
 32 1E F2 0F 90 3C 84 A0 E7 9C A7 43 1B F4 A8 FE
 B2 FB 29 E9 EE 06 7A BC DB 0F 58 87 B0 09 E3 F1
 14 BF E7 0F E5 CF 4A B0 BE AE C9 A8 77 FA 22 4A
 0A CA 90 6F 19 27 5B A7 94 A0 18 2C 9C 71 8B 9F
 26 5F 32 75 4D 9B E8 64 C8 2C 65 0D 7C E9 61 09
 06 6C 30 BC A4 AD AD 45 2A CA C0 19 68 A0 A8 0D
 20 27 0B 4C 61 06 3A 9A 9A F0 CF 35 A8 0B 1F 81
 87 6A 8F 9C C6 C2 1E E2 89 F5 FB 19 F6 8D 75 BA
 E5 96 9C 5E 9A CD D7 CC 2A B0 98 16 80 F8 04 C4
 DC 99 36 7E 99 72 28 E3 6F 1B D7 78 23 84 7E B8
 B0 FC 65 5A D4 5B A1 72 B6 6E 4C CD BF 69 2F DA
 6B BD 8A E7 01 78 FE 8B 1C 38 C2 E4 F4 60 21 5F
 70 65 FC 90 A3 9A 41 29 0C 20 30 93 5A 3F 17 2D
 A4 13 91 18 53 06 94 C1 CA 37 F7 AA 6E 0E BC 06
 55 D6 4F 79 38 58 06 CD 3B 31 B6 45 F8 1B 79 57
 94 DD E2 57 84 8C AA 89 3A EA 4D 14 E0 88 4B 8A
 2E E6 6E 3F 7D B6 AD 30 65 05 06 B9 AD C4 AE 26
 53 1B 1F 95 30 95 DE 33 BB 86 F6 13 C3 E5 DD 2C
 7D 3C 66 AE B8 15 2A 13 C0 54 0F 59 E7 AE FD 53
 C0 1E 52 CE 1B EB 45 91 44 01 E3 E7 BC 13 44 90
 31 62 BE 1C 38 D2 22 30 0C 67 7D 6C B4 39 F0 FD
 7B 83 38 44 B7 6E 43 CB C1 16 BA BF D9 56 CE C3
 88 6A 3A 3F B1 5B D3 4D 47 AB DF 84 84 ED B3 D2
 79 14 3C 62 36 D3 6C 88 8A 26 03 38 07 1B E3 9E
 9B 59 A9 0A 35 9C 0B 66 5E 98 EA 0C CD A9 18 4A
 4C 30 2D F2 F5 6D 2D CE F9 68 1F 4D B9 3D C8 37
 CB 1F 2A F2 AA 2A E0 D9 C2 0A 33 E4 65 7E DB D2
 3B 01 37 1A 56 85 5E C7 51 31 C1 61 F5 A3 C2 48
 CD C9 B5 F8 2B DE 32 28 C2 0F 81 67 AC C8 C5 8A
 73 A6 C3 AE 50 BC A4 E6 D3 34 7F 98 13 64 51 95
 5C 2F 53 F9 C5 0D 41 4A E0 75 B6 F0 43 B9 2D 0E
 9B E8 5D 75 CD ED B2 21 12 B1 2E 94 FB 89 E7 BF
 A0 96 0F B3 D2 43 7E C9 AF 32 39 AF 84 DE 70 67
 09 08 F6 B3 C5 DE 5B C2 D1 84 B7 22 2F DB EC 23
 A3 13 B2 4E 52 3F D9 C3 52 D8 94 8A 7D B7 BC 88
 0D 93 2A 32 4F B6 2D 84 5F 67 6C C3 3A 1D 57 56
 BA EB 81 28 D1 36 4C E2 21 FA 7F 99 6F 96 49 21
 61 24 4F A7 BD 50 70 06 65 50 60 73 E2 43 A7 21
 54 A7 AE 5E 42 94 8F E9 72 EB A3 4A 8F 76 E9 7C
 2F 93 E5 70 43 88 BD 99 1D 63 62 B7 A8 5A 0D CC
 34 29 3C 12 FD 24 BF 3B B5 1C 40 AB 31 96 C0 A5
 C0 F8 91 97 5A 6F 3A 8B 62 11 39 EE B5 0F FE 8C
 EC 0D E3 D8 11 A2 01 67 62 3E E7 4D D8 0C C8 5E
 B0 43 AA A9 9B 0E 15 EB 0D 5F EC AC 22 40 04 75
 48 5F 61 9A B1 64 AB E9 14 03 E4 F7 CF 77 68 32
 23 01 99 63 CD 94 AE DB 88 22 F4 67 E8 DB 78 42
 E5 57 24 C2 D4 E5 25 AF 51 3E E3 02 7C AB FE FB
 CA CE 57 E8 53 E2 65 DF 3A 4C 80 39 2A 17 D8 A7
 4F FB 44 41 4F 9A 4D D5 DC 90 E4 D3 02 09 36 9F
 0D 27 00 58 30 FB 51 D3 BF 87 8C DA A4 DA 45 4C
 56 A2 9C 0B 6A 5C D8 6F 82 87 56 AA 0E B2 72 64
 D3 C8 78 07 32 17 A6 D3 71 0E 30 3B AB 52 B5 BB
 E1 CC F5 C2 69 A2 03 C8 3F FD E1 E7 E3 12 0F 3D
 4B F0 A9 CD 58 BD F2 74 8E F0 AD 57 BC AA EA 15
 CB CA AE 34 68 AE 0F 90 F9 80 E3 DF B2 ED F8 7C
 1C 34 0D BE B0 E9 54 9A 9A 5D B1 C9 74 14 0B 77
 20 97 02 DA DB AE 95 D4 F7 99 71 88 2A 09 21 06
 39 63 23 5E C7 92 C6 AA 14 CF D0 C1 60 EF C1 79
 02 C5 A3 3C BB 8A 2B 9B F2 11 C5 56 F7 8B 67 9B
 8A B2 60 E0 03 A7 BA 1D 1E 48 9C 53 E2 E0 4B 89
 57 C0 7E DF 76 2F 12 29 81 D3 2C 2C FD D1 0A D0
 6C 8F 4F 49 34 DB 7A 34 E3 84 91 CA FF 6F E4 DB
 3C F0 56 2B 5A 42 F1 14 90 77 14 2B A5 80 E6 79
 55 36 A8 1B B7 04 F6 E3 CA E7 09 23 81 58 B7 4D
 C8 CC E4 EB C0 44 0B CA EB C2 25 21 43 28 63 A7
 5E 6A 80 E3 16 54 29 6D 3E 36 85 B5 3F A7 A1 97
 C9 05 41 98 9E 59 52 2E 8C 5B 36 44 29 2C 1C 22
 A0 56 92 CF A8 19 48 0A 5F 70 E4 3F FA 38 C7 19
 70 CC FE E4 9E 13 C3 46 D6 87 C3 D0 26 50 F3 D0
 59 8A D4 AD D2 79 50 B9 87 98 85 DE C5 12 2F BC
 AC 1E 85 51 1D D1 BC C4 BB C3 6D 11 70 45 E1 3B
 E3 78 40 0B 1B F2 10 90 E6 DB F3 5D E3 C6 49 BA
 5F D2 4A 82 10 44 8D 14 7F 62 B9 45 3E 01 8C 30
 84 27 FF E3 CF 4C 2E 13 B7 AD AC 4A CA C1 28 24
 9A E4 2B 0E 6A 20 CC 50 E2 66 F9 11 C5 80 87 C0
 9C 59 5E 16 FB C1 B9 3B B3 6E A1 C9 9A 69 F8 FF
 98 AD AB 1A CC 24 BD 73 DC AC 4F 82 AF B7 54 17
 54 08 CE 42 69 53 2D 15 97 0B B8 27 B2 7F 6A 5C
 5B DC 2D 52 E9 55 D0 05 DE 7F 78 B8 B3 22 DE 96
 05 94 8B 7A 83 0E 1D 84 20 82 02 0C 6B 62 3D BB
 0C 17 B3 48 38 2D 2B AA 29 45 47 19 51 B0 6A 00
 05 C0 C9 F2 B2 82 7A F8 AD A9 6C 0B E2 4B 42 C4
 87 18 FA 34 B6 28 1A AB 41 C2 CA FB F5 2C 60 27
 73 1D 38 C2 3F 6A E3 90 3C 5C 6F 01 3D 25 91 33
 1B 59 10 39 75 3F 4A C5 B0 E1 82 20 F8 CC 7E D6
 AD 2A B7 7A 0E 94 6E 4D F9 2D 86 78 6A 01 99 72
 92 FC 59 E4 AC 19 82 39 31 F8 C3 2B C3 98 E0 91
 4F 84 5A CE 39 39 83 AE 03 35 23 63 6B 0B 79 B9
 BC C5 70 9B F0 CD 78 81 7F DF E5 48 F8 06 85 1A
 B1 39 23 63 A1 EC 7E 7D A1 BF 25 6E BC 2A 97 2C
 B3 4B 41 4A 9C 3D 3A 4E 51 8B A5 38 C0 60 F3 ED
 18 81 D2 F4 73 6E 2E C2 A0 F7 4C 9B A3 15 7C 5C
 2E 40 F7 A5 C4 39 AB 64 49 70 F8 A5 D5 C6 D4 12
 A8 03 F7 AD 11 4E 62 21 B9 DE 88 A7 7F 94 E6 37
 E9 D4 D1 AB FA 2A 42 4D A4 D9 62 57 28 31 A3 3B
 B1 C2 F2 C5 37 68 E4 21 50 84 AD 61 6B D7 FB 30
 7B FF 9C 71 43 B9 81 6F E2 6C 29 82 14 A7 C7 07
 C1 27 3F 95 5A C9 81 5C EA 02 EA E5 AE BA 33 90
 5A 97 85 B5 25 BE FB 38 CA 80 BC F2 F8 EA 96 81
 3E 9F DF B0 BC 76 2B 8F 5F 94 CD 83 CC E2 B7 2A
 05 25 2A 8C E4 28 59 65 C7 FE 59 72 0E 70 5B 33
 A1 95 2E 85 E9 BF BB 9E 89 B7 5D CE 3E B2 72 60
 4E BD 76 FB C3 89 14 F9 41 AB 67 3D 3A A2 77 77
 1B 4B 39 C8 D7 5B F1 CB FD A2 B5 F8 01 6B C2 CE
 F9 47 EC B2 A6 0E FE 1F 82 8A B8 04 D7 9A 80 D4
 B4 02 C5 09 74 88 52 29 AC 40 2D 42 4D 53 53 01
 69 90 D6 4C 0F B4 85 10 02 F1 73 D6 50 7D 0D B8
 5B 6C 96 6B 51 8B 81 07 16 04 DB AB 07 89 8A 33
 DA 1F 31 36 6F 95 A2 BE 89 F9 89 26 73 43 F3 99
 6D 8A 16 F5 B0 A1 31 96 A2 13 4A E0 EB 6A 33 F6
 E8 4B C4 71 E3 14 F6 97 B3 03 32 C2 AC 67 0C ED
 C2 1D 6E B8 E7 4E 0D 82 09 3B 8A 32 BE 12 1A E6
 F9 2D D4 83 41 82 CC DD EB B0 23 FD 5B 35 A3 BE
 C2 F4 44 E3 26 67 E0 60 5D 50 70 05 42 92 70 D4
 97 B5 6C 44 84 9C 8D 30 25 62 D6 60 D4 61 5C 9E
 D0 29 25 0B 38 F3 EE EC EA 0C 58 07 DC 23 19 85
 A4 DC A2 07 C7 B7 78 87 B8 2F 2B E3 17 29 67 30
 2B DD 23 49 EF 93 B7 1A 7C 94 FA 75 E9 9A 91 7C
 E3 BF E3 A4 1A EC 30 13 2A AF B5 A6 97 5C 80 F9
 B8 C6 61 08 A8 93 57 45 E9 90 3E 29 43 53 47 7F
 57 A5 A5 C9 F8 6F 79 6A 21 50 E7 9E FE 07 85 03
 6F 9D 41 36 DD B2 17 69 CD 87 58 30 F4 34 0A 04
 A7 90 2C 7C 54 04 C9 AF 80 F0 9B A8 1C D3 A3 51
 5D 51 39 B4 7D B4 AD D8 FB 6E 14 51 1B A8 32 F1
 8E 84 1E 4E 3B DA 9D EE 5A 43 1B E1 2D 10 C0 16
 A8 22 5C C2 DB BE 06 78 72 20 EF 02 B8 AC 2D BD
 72 2A E0 65 7C DE E7 5E CE E6 27 4F 82 5D 01 E5
 5C 02 C1 74 27 21 1E 9B 6C 6E 15 5A 63 D1 F1 14
 04 57 57 F7 AB 8C 2B 25 92 08 39 CD B8 AB 6F 6F
 08 3E 75 3C 15 7E 00 AB 22 03 0F 99 84 DE 0C E9
 28 A8 2D 6B 2C 3C 08 C1 1C 0E 05 31 22 28 6F BD
 21 85 E9 FA C6 F1 C1 48 9A EE 0F 22 64 33 0B F0
 AD DE B2 58 B2 55 8B 87 19 05 50 E0 3B 89 2C C7
 4B 4D 90 B3 A6 14 54 98 1F 09 FA B2 43 F7 1A D9
 A1 BB FA CE 82 9D 2B 9B 6B B7 DF AC 8E D1 A4 9A
 17 94 DC CF 2C BB 7D E4 33 42 0B 0C 9A 97 04 F7
 54 FE 8B 2B F1 50 E5 88 F3 A4 E5 A5 34 61 70 AF
 8A 92 75 04 89 9D E3 A8 C8 62 BE 63 8C A7 B0 5C
 A0 B4 F7 36 41 42 7F F1 F2 9B 9B AC B3 53 F6 0F
 32 E0 05 95 36 E6 E6 B0 42 E5 F1 76 92 16 B2 8F
 9F A3 54 DB B0 B6 62 9F 3F 44 D0 27 54 8C EA 9F
 8D BD 7A 26 31 50 BD 75 83 57 66 12 0E 56 DF 11
 36 B0 9A 1D C8 EF 2A FD 01 F6 9F 4E 2F 05 15 52
 EA 67 91 9A 1A 1F AD 25 A3 2E 19 C0 FF 79 F3 58
 E1 7E 1D 97 B6 1B A3 5F A4 20 23 3F D8 CF E8 40
 CC 89 CD 6B 12 BA 8F 2C 75 33 B6 63 43 1B 06 65
 25 0B A7 30 A5 8F 44 27 C6 62 C8 3D 05 36 05 9D
 A0 83 CD 24 D7 AD F4 03 93 FC E3 FA 36 F3 D6 29
 B9 A4 F2 25 19 DC 3A E8 0F 8B CA D4 6F 6D 9A E9
 CA 61 08 79 66 82 8C 9B 3B CB D8 84 39 E7 F3 17
 C1 3F 85 44 64 8E 50 D4 61 4B EF 54 D3 16 6E B4
 F3 06 B7 72 28 CF B2 A0 6B 66 97 3F 9E FB BE DB
 E2 DD 13 92 06 92 40 88 24 0C 00 B1 73 9F EE 6D
 95 3B CC AB 07 07 2A D1 E5 C8 D9 39 48 51 7F 23
 7A 4A 49 90 42 30 46 C3 CA 4F 25 D3 36 9F 25 82
 C0 27 A8 E3 6A 77 BB 72 0B 0D E8 79 4E D1 AE B4
 22 28 CD BC E7 8C 4A 5D 6E 40 89 62 D9 27 92 A8
 B2 19 F1 CD 94 F2 4D E9 E3 C5 5F 50 40 A1 FF A8
 BF 7B AA F5 41 EA 37 1B 11 72 B2 71 31 77 CB AC
 FD BE 2E 48 ED 68 3E 3E 69 7B CC 99 62 FC 0F 1C
 BB CB 7E BC 36 2A F8 17 9B AF FB 33 3E 11 CE C7
 B5 05 48 C1 D8 43 A2 EE 51 3B E5 FC 0C 62 59 E7
 72 7A 7A 60 D0 37 0E E1 50 98 96 90 F5 7A 03 F2
 68 CF 21 75 28 A8 77 09 65 F8 3E 1D 5E B4 2B 1C
 2D E9 DF 7A BA AB 31 A0 CD 3E 0B CA 1D FF 62 B4
 47 01 A6 3B DD 15 E4 59 65 9F 67 B1 85 24 15 B2
 D5 B3 30 76 9F 33 74 D1 46 75 25 00 40 7D FF 94
 A5 B5 0A 23 DD C8 69 6B B4 56 97 0A 0B 07 EB 83
 64 39 D6 B4 BB 7F 7C 87 70 87 68 65 AD 4B BB 07
 B8 D1 4B E9 10 F5 E1 D6 3C D4 E8 9C D8 6C 08 BF
 F4 2E D6 61 30 E1 55 B6 79 A2 83 A1 19 41 27 1E
 CC 19 1D 0F 72 42 B2 09 62 7C 43 CC BA 30 76 A7
 4E 9C F7 34 92 B6 09 68 06 9D CF D6 93 24 F0 CC
 BF 96 7D 22 7D 4D 53 32 66 72 35 44 B2 0D 89 21
 0C C0 57 94 3D 86 69 6A 5B 37 7C 58 6A AE 45 71
 BC 5A E4 AB 3D B2 A4 5B 72 99 42 35 BB 1E D9 42
 9D 55 2E 5E A5 7B DD 6A E4 40 B0 8E 8D E2 F9 4F
 D6 27 19 3C E1 25 42 EC 5B 60 AC C5 89 7A F9 D5
 C8 7C A8 41 B9 69 DF 77 4A 4D B3 6E C5 42 EF C6
 6E 57 F5 14 A7 60 0D E2 1C 57 D6 BA BD 81 A4 48
 72 43 F8 A1 EC 60 4C 32 8F DE EC EB 8C 8F 5D 7E
 04 15 DD 64 0B B2 FA F7 F4 49 63 3F 88 58 1D 16
 08 0D 7C 04 D0 94 A1 A4 F1 91 0C A0 5C 27 65 DD
 75 F1 6E 14 D4 13 D6 09 F0 23 84 1A D6 F3 17 32
 01 92 B2 1F F7 15 FA 0B 3B 95 24 BA AD 4E 74 50
 49 5A 77 44 08 F2 CF 59 58 E8 82 BD 37 76 FB BE
 C3 E1 AD 13 AF 76 F9 D5 AC 9E AB FD 0C 10 33 56
 76 B5 E2 E1 4E 36 44 8C B7 3D 24 0D 35 23 F2 4C
 30 69 96 01 67 FD FF 8F 58 41 CB E1 EE 08 5B DA
 64 CE 74 29 B3 DE CE 98 F5 75 0E F6 10 83 BE 06
 CA D6 40 A6 BE 74 0B 8E B5 59 CA 8A 0B 4C AA E3
 D3 ED 67 73 8F C2 49 4E 99 46 FD D2 EA 50 B6 5C
 A0 C8 10 CE 9E 4C A5 DD 96 2F 99 10 14 CB 16 A9
 96 15 86 A0 58 8B 66 08 1E 95 CE 2F 1A 6F 83 29
 34 84 3D 3D D1 1C 10 50 60 30 31 E0 72 43 2C C1
 AF 1B D8 5C 4C E7 E2 2F 79 07 C8 CA 81 C2 7B 35
 87 50 D9 F9 B9 6E A9 03 C2 2F 66 2D DA 1A 68 33
 47 74 82 73 1A 29 D1 9C E3 BE 99 C7 FF E2 6D AF
 5F A8 61 30 B2 CC 34 D0 D4 F8 CC B9 1F 54 BA 52
 21 20 33 E6 52 0C B9 00 0E C8 0C B3 C9 40 76 AF
 EC FF 9F FC 8A 34 CA 7B 54 3A AB A3 07 50 C3 4C
 EE DD 64 7A 84 F9 57 53 AE 1E 2A 9D 05 C0 42 52
 4B 8A 1D F0 E4 63 DE 24 7A E8 E1 82 6F BB E3 34
 62 B8 64 53 1C D4 39 D2 0A 68 3D BC 80 56 97 B7
 55 DA 86 10 D6 D1 02 13 E9 B5 5B C5 AF 90 BC CB
 76 84 F5 3E A4 28 FB F1 F9 E2 54 4F CF 25 78 E9
 BA 2F 20 69 BD 18 2A B4 17 81 0B 94 56 38 56 B4
 49 CD E5 0E F2 56 9F E7 C9 D2 59 D2 22 EC 27 4D
 4A 38 D7 C3 A9 DB F3 3C D2 AE DB 8D 64 01 C9 FC
 58 8F 8E A3 77 4D 57 F9 00 FD 1D A3 2A DF D4 3F
 04 7A B1 AA 56 10 66 E3 00 64 27 F2 18 B0 01 C8
 61 3B 80 38 B5 4B E4 C8 40 FC C6 93 FD A7 0F AC
 9B 52 5D 82 30 5E AE BB D9 97 09 6C A8 3A AD 0E
 3E 6D 0B 19 8B 59 81 16 3C 78 A0 70 57 BF 52 F9
 A1 56 AA 26 54 CC 82 AA 23 C3 86 D9 A1 FF 66 A5
 31 EA FF 85 08 52 31 84 E0 5A 15 14 09 83 3D 3C
 74 D9 3E 39 3B F1 90 1B 0B FF 88 33 3A 27 2A 73
 F2 44 58 35 B8 15 4B 82 9B DA 37 49 BB 13 1C 8C
 48 A5 02 7B 08 92 B8 62 2F 27 E5 64 1B C2 1C FD
 EE 4F A6 B2 4B C1 43 0B 92 46 75 42 33 D3 A5 36
 2A FF AC 88 DA E4 29 39 A3 70 93 2A C1 67 61 10
 E5 FA 90 16 19 33 31 3C 29 FC 47 1F A1 04 F6 7C
 95 14 31 C6 FC B1 29 11 75 96 7D 61 CD C1 B8 83
 CE 81 3C 43 05 47 F7 19 15 82 2A 75 2D 75 D6 D9
 B0 A6 A2 2B 7B EC A3 AF 5F 6A C4 81 8F 47 F8 D7
 07 A2 B9 91 D7 FF 72 23 48 FA BD B4 E0 DF 34 20
 C7 C5 07 3A C9 75 53 68 F5 59 C7 8A 2F C0 26 08
 B6 AC 81 1E 77 16 F8 88 EF F5 00 6D C9 FE 0D BE
 EC 78 2F 02 0C 3A DB 26 0B 03 46 AB 80 E3 DA 24
 12 38 DC F3 7E BB 95 58 00 0E 55 1B 08 E7 4C 23
 BA E6 76 0E D8 2E F9 6E 80 47 82 1D BD 45 B7 D4
 C9 F2 34 92 86 67 82 10 3E 98 0B 57 B1 93 85 04
 F2 8F BB 28 BD 85 36 BE 39 92 68 42 84 BB 91 F8
 3F B0 0B 67 CD 31 C2 FC C7 6F FC 91 79 E0 0E 0E
 66 BD DC F8 FC 99 61 BE F8 42 A6 86 40 BB 3B B7
 76 82 F0 51 51 51 A6 4E 8A DF 4D 6F 53 ED C0 99
 09 47 E0 3E C4 F2 E5 E8 A9 74 AB 23 D5 E2 07 3F
 7A AB C4 0E BF 84 6E A2 1F 12 46 60 E7 9A 5C AE
 B9 8E CA 3C A1 50 D3 E9 7E DF FE 7D F9 53 A9 C3
 53 FB 01 19 FF 21 FA CA 75 BB 0C B3 7D 67 7D 54
 F8 82 6A 0C 7B 2A 21 D6 79 90 BF 6A 77 CA DA 54
 73 6A 6A E5 D5 EF 88 8E CB 50 AC 0E 2D B5 4F 15
 F1 EA CB 8D F3 37 33 3F BF ED B8 14 FE 85 19 8B
 FE 2F E1 2D FA A6 6A 5D DD B6 3D EF FC 22 61 7D
 D7 69 03 C3 91 2E 19 31 04 B5 A7 5A 7F 4E D5 BC
 D4 5B 69 FB 46 B2 67 35 FF 8B FB 52 14 84 61 73
 57 AC 71 13 E4 B6 F4 64 6D 3E 9F 3E 7D 73 A4 A5
 D6 78 4D 19 DA C6 6A 66 3C E3 07 BF CA 57 B0 60
 88 27 ED 0C DA 0B 3B 82 EE 7B B5 09 94 EE 8E 36
 D8 34 3A 34 E4 52 FC 89 8A 1A D2 6C 23 62 22 24
 22 B4 39 6F 68 9C 01 66 69 00 68 38 7A 9C FB 04
 E6 68 E3 49 C6 60 A0 0B F9 BD 3C F9 CB 7F 3E 05
 CE F2 A7 DE 26 85 94 10 16 16 D3 38 8B EE F2 08
 2B D0 0A 3C 35 90 0B ED 34 E7 3B 37 C3 77 E8 55
 BF E7 BC 16 76 F0 D5 48 38 01 C6 27 F7 78 8E 42
 A3 07 BF D4 65 DB FF B5 9F 82 8C 75 BD 2C 80 06
 61 64 DA 8C 5B CA F9 A9 06 AC 5B 4B C2 E6 87 77
 93 62 28 B3 28 24 9E 7D 2A 66 2C 6F 34 49 A4 10
 F6 6D B8 2F 88 E3 17 60 60 21 BB 63 19 54 38 45
 AF 35 36 E9 CB 75 F7 CC 50 7E 02 84 CF 30 8D 57
 6C 9F 97 14 41 25 6A DA F8 70 C5 0D 2D 68 0D B2
 05 B7 07 56 B8 00 02 CB D4 E8 B7 7C CF 40 4C A4
 91 4C B2 D4 5D 22 C9 FE 32 F9 83 B3 5F 16 5D 19
 6F 13 6D AC 31 F8 2A C7 CB AB 5E A3 93 B4 06 25
 AB C7 75 92 AE 01 08 D7 7A 79 C2 A9 92 95 37 D0
 D6 64 FD F0 37 C6 DC D3 32 39 B5 EE F0 4F 22 3A
 98 CC 92 AF CD C3 7E B4 74 94 B1 45 15 35 F9 26
 1C 8B F4 CF F6 F9 E9 E8 97 54 F7 28 9A 1E 92 20
 40 FF FB CE 9E 8C D4 23 D6 3F 88 19 95 C0 A1 B9
 A3 45 F0 9C B9 5F DC 7C B1 7F BC E5 79 B1 D8 C8
 4B 9B D2 6D 63 45 5B 6D A4 2A 19 C4 FC B2 55 62
 B4 F9 6F 03 AE B4 C1 27 08 13 9E 00 23 C2 B0 A1
 42 45 AF 53 20 F1 27 34 F4 90 17 65 89 EE F0 82
 79 64 F7 5F 64 E1 77 36 C3 CE F0 E6 1F BC 84 88
 FC B4 10 DF 91 EF 24 E9 B7 CB 53 01 E1 84 A1 AD
 2B 28 9F 4A 66 C3 81 83 EC 8B C4 56 F1 FE DA 9F
 D2 E0 2F BD A4 16 94 0E EC 16 89 44 50 65 D6 A0
 27 31 D4 BE 41 E3 0F A2 0A A0 B5 AA 15 9A 71 4F
 B8 C3 0E 92 4C 20 D7 41 23 B8 29 B8 26 BC C1 5F
 D7 D9 91 F3 F5 6E 36 36 D2 E6 87 E6 A8 3C D9 E7
 35 E6 67 70 EA 88 0F 07 1E 41 21 17 C2 A5 EA E8
 A5 43 7E 86 03 19 7B 61 71 4A C4 62 08 08 B5 A4
 5A 55 62 56 6D D6 AE 60 FF E7 85 36 9F F2 D1 D5
 0D 1E 5C 52 71 1B 06 C9 09 CE FC 0D 08 EF D7 CC
 F8 58 37 54 EE CF 0B D4 38 A4 FF BD E1 38 70 88
 EE 23 6B FF 6F 13 9F AC A7 7C 5F BC B7 7B 3A A6
 54 08 C8 56 D5 5B 99 6C A9 29 9A 1B 64 CE B7 E0
 AD 6D 22 7A 3E 7F B4 70 3B 2B D2 67 4F 78 0B 4E
 8C 8C AC 73 C3 90 6D B0 BE 5C A0 0A CD 71 04 D4
 50 9B DE 57 73 5D 42 4B 6E 0D 1E 58 59 89 BA 9D
 43 94 0C 4B 5B 7B A0 7C B7 BF 16 28 FA 53 6D F0
 42 A2 35 72 DE 39 39 DA 26 4B C1 54 54 07 69 46
 F9 DE 5C 16 2F F0 C6 68 B0 01 6E CD 4A 43 AE DB
 09 1B 08 2E 4B 3B 1C 16 87 E4 C8 02 D9 23 24 23
 DD 8C 90 C0 49 8A C9 31 83 BC 48 78 B3 5A 6E DB
 1D 8B AB 66 CD 96 80 2F 19 62 3D 9D 7C 8A 85 73
 81 EC 69 1F 33 93 22 3E A0 FE 54 B7 99 5F F5 40
 25 E5 C0 70 05 6C FF 35 56 4C 87 0B 5B C8 35 A5
 EA 25 EE 10 00 F0 23 ED 37 58 47 BF 6F 69 14 8B
 74 EE DB 1E 55 93 06 3B F1 A5 CA 65 85 01 48 18
 BC C4 97 78 82 C8 4E 70 72 CD C6 42 17 5C FD 13
 BC 62 81 41 EA F5 92 C7 E4 9B 35 94 64 CE BB D9
 B7 7B 17 25 7C 2D EB BD D7 C8 CE F3 52 D8 54 64
 74 2A F8 E8 DC 36 F5 53 F4 6A 86 DF 32 0A 90 68
 F4 F5 8C 7A C4 F2 B1 DA 55 D3 F9 A1 16 FF 34 C2
 1A 28 81 74 75 4C 17 ED 36 1B 52 72 45 84 DB 24
 AE 13 97 D9 76 27 ED 72 B6 E0 CD 6E 48 CE 3E 91
 52 25 B3 61 6E 86 42 1A CC AD C8 DC 86 A5 E9 2D
 37 A0 41 6C F7 37 E6 3F DB 32 EA EB 72 88 6A 73
 43 71 F6 D2 EC 78 F8 86 A0 63 0E 2C E8 78 53 D4
 F0 94 05 5E 49 9B EE 54 9C 24 09 EF 25 96 8F 48
 8A 1A CF 08 E1 07 DF F9 27 B6 DF F6 68 63 D5 A5
 9A C3 AE E1 C9 51 6F 6F 62 E0 34 B9 E8 21 A1 22
 95 AC 86 BF 85 27 22 A5 12 D4 F9 33 58 93 BC 1C
 B4 D8 06 ED 40 BB 52 A9 99 37 80 2B 81 40 BA C6
 1C 75 56 E2 73 40 38 99 E4 50 BB A1 21 2C 3E A6
 93 43 D6 26 63 AE C9 95 37 14 21 13 70 AD 8C 00
 C4 D5 6C F8 A2 44 DF CE E7 18 94 6F 23 10 B5 CE
 D0 94 EA 53 DD 3A 52 97 58 05 41 56 BE A5 36 CD
 A5 CB C3 23 78 25 5D 47 FD D8 BB E5 33 43 01 D2
 BD 01 3F B1 4C AA 98 8A 9C 40 E2 18 15 47 A6 1F
 DA 78 13 54 B8 B1 16 2A 5A B2 B2 4D C3 01 66 95
 53 69 77 BA 21 8A 55 06 C3 E0 C7 1E 40 0F 8F CB
 97 44 DB 20 F9 9F 8B 8E AC 5F E0 0B 52 DF B0 51
 2C 00 C2 21 AA AF D3 0E 21 2C 7E BA F5 D0 FD AA
 6A C3 E4 F4 6A E6 B1 8F 76 DE C8 AB A7 BB 9E F5
 E9 BD 46 2C 39 4C AC 0C EB 1B 50 E2 9C 25 5E 49
 A0 26 D3 EC DE E7 93 8D 46 A8 21 89 F2 CB 20 1B
 53 6A F4 D5 FD A8 1E BD 65 EF 91 F4 AC CF 37 AF
 0B 1E 00 B0 3F 05 B9 49 8B E6 A6 EB 22 60 F1 26
 CE 5B 79 45 F2 90 5C 79 41 9C D9 0A 7B 2A 2E 5F
 0E C7 7A 01 A9 24 00 5F 21 96 A5 2E 41 31 A9 DC
 C1 C2 C3 8F AA 0C 6F 81 9B EF 6C EB 1B 8B F2 F3
 42 12 3E 87 C5 85 EE 1D 50 D3 9C FE D8 D5 A5 9A
 F8 96 C7 F3 D2 35 81 96 28 06 AF 80 57 E3 94 C5
 D8 A7 03 E4 F6 75 AA 26 D1 72 B0 BE AC 90 A8 78
 0E D2 84 3C 4E 5D 86 EC 76 A2 B9 44 E6 63 00 CF
 80 56 A3 AD C8 55 8F FD 53 07 D0 EA FE CF D9 97
 BF 72 B7 40 FC 6A F4 E8 69 3C 26 EB 88 46 3E 1F
 30 09 E8 8A 72 BC AB 29 0C EF 11 11 75 D2 41 5C
 4D 62 2F 67 2E 10 DE 02 DF B9 3D 12 0C 96 3A 9C
 97 B0 59 33 56 B3 86 17 AD 2B D2 3E EF C6 4B 8E
 76 04 A1 20 6D 51 7C BC 43 34 A8 23 02 BA F2 62
 F4 F6 CA 2E E7 EA 1C 00 62 CA C4 31 7D 2E 2F 46
 A6 14 B7 BF 5A 88 49 99 DB F2 F1 B7 ED 59 69 09
 3B D9 FD FA EC 7C 1C BB 91 F9 56 A7 92 89 86 C4
 B2 A3 B6 36 C2 D8 03 9D E8 EA 77 D2 CA 01 0A DE
 F4 48 7D 1B 1B 42 06 73 68 E9 D5 63 99 8F 14 A9
 C3 D8 B1 A9 95 B2 C3 51 59 AA 7F F2 A5 17 35 8F
 DF 28 8B DC 58 72 61 96 51 AC BD 1F 5E D4 BF 0B
 E3 49 57 90 05 D8 F2 35 52 95 63 6B 9F 16 D8 6B
 64 19 E2 B1 AF 57 3F 3D 57 64 F7 7B AB B7 36 57
 E3 DD E7 2C 98 2B C9 82 0A 28 1C 12 E3 25 1F CC
 53 30 B0 FA C0 9E BF 02 E5 1C 73 F1 56 71 F5 F1
 10 04 AE F9 1C 77 E1 67 B1 9E 40 BB BC 1A 20 5D
 9A 88 2E 95 63 40 82 EB F7 77 19 5E B9 FC D8 2D
 74 60 42 8E 3F FB 1E F5 14 FE 03 66 6B 29 C0 D2
 9D F5 B5 D1 87 14 A9 B6 93 C9 C2 D2 A8 DD 17 4A
 12 44 21 91 E2 27 0B 9E 50 D8 99 A9 A8 0B 26 BE
 FA 0A A1 E2 25 01 2C D7 6F 07 52 5C DF 81 60 BC
 BD 2F C0 22 DA 02 A2 96 82 DF 35 B1 0B 03 14 64
 E7 11 E9 91 C2 25 56 5E EF 19 4A 89 F8 9E A5 4F
 80 56 65 F2 23 22 E3 7A AD 02 F3 36 F1 3B 33 85
 F4 8B AF AC 28 3B 67 66 8F 7D 13 88 3E 8A 8B 77
 9C F3 1C FC 86 C2 7D 73 16 8A 78 14 AD F0 42 1B
 8B 0C C2 45 3F 44 F5 DA FB C3 56 5B 54 C3 EC 2D
 E1 7B 2B 54 F2 0E 15 9D F4 66 22 9B 1F 81 C5 B5
 D2 F2 1D 87 DD E2 42 D1 9A C0 76 C8 84 47 76 9E
 D7 EB AD 08 DE 50 A6 A1 21 18 56 ED 6B 11 AB 7A
 2B 35 F5 C8 AA B7 CE 0A C9 BA FE B2 70 EE 17 F0
 13 33 32 F5 D3 F9 D6 2C 87 6C 79 89 39 B4 7C DD
 47 DD 64 4F 0B 12 62 74 DD 44 E5 C7 B1 0E A3 92
 17 74 92 68 2D 32 A5 B4 53 DB 6E 98 10 15 AE 79
 B7 89 D5 0C 7D 19 09 FD 6A 63 77 9F BD 82 8A CF
 6C F9 30 1E 03 C4 9F BD
* End 3065343480 2911637595