* LTspice Encrypted File
* 
* This encrypted file has been supplied by a 3rd
* party vendor that does not wish to publicize
* the technology used to implement this library.
* 
* Permission is granted to use this file for
* simulations but not to reverse engineer its
* contents.
* 
* Begin:
 1C C7 1C 33 82 DE 28 14 96 1D A4 A2 4E D4 80 22
 F9 44 BC 20 76 A0 1F 38 D3 3A EE CF B2 D0 2B 54
 D5 D2 60 D7 F5 A8 9A EE 5C 70 A2 B2 69 4E 1C F2
 AB D5 EF 53 05 F4 FE 40 82 A9 11 A8 DD 43 89 8D
 D1 70 0E 93 EB B9 87 0F 0A B4 EC 20 27 16 9C F1
 ED 39 8A EB D6 17 69 FD 90 AE 68 DC C4 B9 46 B9
 64 3D EF D9 C9 FC C0 BC 79 0E 2D 76 45 5D AC F7
 21 EE 68 60 83 A7 D7 44 7D C2 22 B9 CE 59 CB 13
 CC F1 B1 D2 E6 AF F0 1B 66 AD 23 D6 57 BB CF ED
 B2 65 8D 46 97 1B 53 4D B4 4A 18 4F 14 99 06 BE
 9B F4 3F B9 CC CC F7 B8 63 28 AF 45 B5 C2 E7 32
 7C EB 2E 7B EF DF 69 6E 6B 54 27 DA 93 40 3D 84
 01 BF 4B 16 A4 63 23 8D F6 27 1D 43 1A C8 D1 16
 C8 92 16 C7 55 89 05 69 85 B4 62 1F 37 04 B3 DB
 1F FF EC 4B 86 A3 E7 EA F7 FD E4 71 93 FA 86 84
 8C 9B 78 42 88 66 C0 56 A2 07 8B B1 FF A3 BF 6C
 60 C0 1E EF 9D B4 DF 3F 03 7F 7C 34 6D B8 DF 2A
 2A 15 33 6F 41 33 07 C4 75 AD FB B3 4D 40 80 A4
 7B 37 87 9E BD B1 B6 BA B5 49 E0 F5 DC A6 55 D5
 7C 86 67 29 1A 93 A2 D9 98 A9 49 F9 3C A2 AF 4F
 8F 63 A1 AE F9 89 FF E4 70 41 BE AB FD 67 8B 0A
 9F 25 6D E3 7A 60 29 8A 8C A9 EB DE 04 4A D6 CE
 DF C1 29 0F B1 1E 6E 19 4B 1A 10 CA 06 9A 65 40
 5C 05 8F F7 B8 60 65 4C DB EA F5 6A D2 BA BB 32
 7A 54 BA 2F D0 9C 5E 43 CE 77 2F A6 A2 66 5B C6
 47 10 47 1A E0 91 56 FC D2 C9 2F 6B 06 A9 D4 4E
 62 C0 30 0F C1 C0 9E 59 C6 25 A3 78 25 62 9E C5
 69 47 83 BB 9F 84 C1 9E 9C F1 4B 47 BF 28 58 A1
 D0 B1 A8 09 BA 8E CB 89 F5 72 68 5B C6 E6 71 29
 60 5E 53 F7 A0 DE 25 20 DB 74 5E 52 A4 B6 AF 2F
 AE D3 2A B9 2C 0D 27 0D 2C ED EB B9 47 9A 04 E3
 94 28 DE A4 04 8F 7B 05 78 D2 0E 95 43 B6 77 C8
 0A 93 37 B8 22 49 F0 58 E1 FF A6 A6 36 8D 7E F6
 0B 64 44 38 DC CB 27 3B EA 67 76 FC 30 BC E6 72
 C8 0E 11 F3 A6 FE 28 24 1D 47 18 88 0A C7 0E 2C
 EE 3E 8C 9D 1D 5D 0E 73 3B C7 39 19 CE 63 0B 51
 FA 8E 2A BA 7E 07 4B FD 3C 6B B1 BD 36 A8 E2 9D
 27 B1 CD 03 88 1E E3 D7 3F B8 44 0F 85 8B FE D4
 F0 5C CF D6 42 2C 28 80 FC E6 88 8A 7E D6 5B 3A
 3B 8B 5A 99 A5 CC 39 7A D2 08 23 40 52 44 EB 54
 B0 C2 97 C3 D7 8F DB 2E 0E 6C DB 3B 5B 69 DA FC
 FE 28 D9 46 80 60 7C 0A 5D E9 0E A3 D6 C2 78 70
 E6 C1 86 1F 69 4F 23 8B 12 10 D4 EE B3 CE 93 8A
 20 2C 99 B1 B9 38 18 AE A8 6B 82 6B 0C F6 DA F1
 C8 DE 2C 02 D5 79 3E 35 D0 20 88 2C EE 7D A0 5C
 86 78 5D F1 85 4B F7 67 27 20 54 81 F1 DA 4E 70
 BC F6 55 96 93 8D 6C 1E 49 6F 06 31 5E 96 32 21
 4B 9A 60 17 1A C9 04 56 ED 88 39 3F 9E B6 43 E2
 9A 1B 58 ED D4 90 CF AC 88 5A 8D 8E 88 92 02 BA
 4C 98 CF 0D FF 25 0C C2 34 79 2D F0 66 7C E2 EB
 97 3B 83 6D 8E 86 35 41 7C 16 C3 2D 57 B4 C1 56
 E1 BD 4E 2F 18 4A F6 4C B5 E6 39 CE 8A C1 E5 0E
 0C D2 C0 FA D7 71 AC 84 0D 57 8B 51 2A 88 84 E2
 9C F6 50 CE AA 4D DA B8 AF 55 99 37 84 2C A3 9D
 3B 23 A2 B6 A9 C9 A1 20 3E 32 DD 2C 6B A4 36 E1
 11 79 EB E1 1A 95 CC 53 80 63 8A A4 6F E2 64 44
 A5 CC 8F 5D 3A 2F 0E 38 AB CC 17 EC 3C BA AC 7C
 13 3E 2A 97 3B 0A BB 2F 19 8E B7 FF 91 01 7F 8A
 B5 A9 FB 18 B0 17 C4 AE A8 61 6A 86 D5 8D DD AE
 47 5F 55 7B 3F 78 1D 00 75 75 41 CE 9C 32 E4 BF
 A6 82 1D C6 48 D3 48 FE 24 4A E6 1D 83 16 81 67
 55 37 50 8E 2B 13 40 3E 3B B3 21 EF 23 76 60 7C
 8B 57 0E C4 D0 E4 10 5A C3 69 70 16 C8 B2 9F 4F
 37 7A 10 72 50 ED 88 95 EB C4 20 8A F3 05 3E 7B
 63 C8 34 83 03 69 D8 ED 1C 3F 3B A0 FD FD CF 95
 16 F9 9D 40 CE 6D AF 3A 4C 96 E1 85 3A C2 FB EB
 F1 00 EE EB A8 3E E0 10 24 60 91 76 33 4D AB 02
 58 E2 E6 B2 DE 4D B1 B1 7D F7 23 82 74 D1 EE 3C
 1D F6 72 E6 8C 23 90 D6 90 F4 DB D4 D8 BD A4 35
 77 A4 1B C9 DA A6 E9 E9 1E ED 5F EF 12 D8 79 D1
 F8 95 F8 87 F0 5D 9C 05 26 3B E1 EB 86 98 A9 E8
 BC 2E E3 7C CF 6A E0 68 18 D6 5E A5 16 F3 40 A1
 1D D3 F9 30 E5 35 66 E3 34 0A 63 91 42 06 28 C0
 2B B5 7D 13 5F 72 2A 9B ED 6C C5 12 A1 CA 31 DA
 59 F4 75 62 F3 AD 20 EF E9 C8 B8 27 99 9C 97 10
 5F C0 D8 EB 1B 20 4B C7 E2 FA 7A 0F 72 31 56 83
 2D 69 BD 14 A3 C0 AA 4D E0 FD 1C 6D F0 60 7C BB
 2A A5 88 2E F1 44 B0 66 B5 83 B7 66 65 AD A2 2D
 25 1A 4F 6C 8F A6 4D F6 9D 13 D4 AD 71 82 98 FD
 64 7C 6E 30 63 A3 12 72 37 AF 65 61 FE D2 69 97
 44 EB D1 F9 0A 75 E8 0C 8C F0 36 74 AD 74 29 8B
 CC 00 78 4E 45 94 74 54 73 36 71 E0 B6 D5 E9 06
 48 45 3E 4F 3A B3 9E 67 FF B0 7A FC 89 24 06 79
 C1 87 6E 3D 60 87 9B B7 63 42 90 8A E6 5A E3 36
 1A 26 DB F7 C8 5D 9C 4E BD F6 70 C7 56 CD 0A FD
 F0 AB 5B 87 80 D8 1D 43 32 3B 64 9C B8 1B C1 88
 8C 40 E1 EB 16 CA 68 3A 86 38 52 57 87 C4 3F 58
 EB 00 F9 40 29 91 58 E9 6C E5 A5 BB 0E 55 1A 6C
 8B 8B 4F 8B 5A 0F B6 02 DB BA 67 78 DF DE FD 0C
 E8 B9 99 EF 41 22 1E A8 5D 4E 74 90 A8 01 35 1B
 A5 70 B3 21 60 A6 F9 3D C7 79 38 50 23 BC 91 61
 49 F8 28 7E 4B A2 3F 56 54 25 FD A1 BD 93 D3 47
 2B 6C BC F9 AF 46 93 8B 90 44 EF D1 F9 0F AD 7A
 46 9C 69 46 41 B7 7F CE C4 C1 04 8A 5F 34 8F 18
 A6 F9 FD F4 9C 95 80 D7 AA 27 07 8F 61 70 14 F7
 AA 41 AD C6 90 9B 8D 4F 88 D9 AF 76 7D EF F5 4F
 F1 06 1D AB A3 19 B2 11 9F 4B 58 BC DF A2 DD EE
 3B 54 CF 2E E0 EF 25 D8 3E 37 68 47 15 84 50 A3
 84 17 CF 97 45 44 63 A6 C0 AE A0 6A 01 28 D6 EC
 C1 8D D7 0B DF FA 57 B3 EA 1D 2F 3F B8 6D D5 D8
 02 72 40 0D 5F 21 B3 6D 32 D8 AA F9 D1 D6 5D FE
 03 1D DF 6D 3D 68 F0 11 6F 83 94 14 03 8C EB AD
 56 1F A3 66 99 94 08 F2 94 FB 98 71 BC 10 06 46
 AF 01 7D 25 C0 15 FB 5E 81 DE 18 86 C2 19 67 E8
 4A 15 76 00 5B 23 77 1E 90 0E 33 FB 7D B0 DE 35
 5C BC D3 C2 D4 58 99 FC 6E 79 BC B7 5C 1D 7E B6
 48 B5 18 7C D6 0C C3 44 24 30 60 66 C8 A6 00 1F
 03 A2 A8 16 9D B5 88 0C 97 71 87 26 9B 44 F5 A7
 88 F1 3F 55 75 12 82 D2 08 03 02 C7 E5 7A F8 63
 F1 B5 C1 B7 95 BC D4 44 78 65 BD 44 4C 99 85 8E
 26 2E 80 B7 68 5A 24 96 82 50 F0 E0 A7 49 A7 BC
 1D 22 BA 72 60 2C 34 E6 83 A6 2E 15 CC A2 B2 AE
 85 DB 26 CB 49 5C 91 70 AB 33 A6 7F 23 B5 15 F0
 70 70 C8 BD 06 04 F7 FF BE 2E 79 3B 6C B2 71 5A
 3E F3 92 1B 70 01 5F 3B 8C 16 EA A4 B0 CB 9D 3F
 AB D3 B0 16 9A C0 3A 07 1A 81 BF C5 9A 0E AF F7
 15 20 76 D7 EA 6C FF 64 C3 B7 42 30 7A 77 06 EB
 58 66 0A F7 B0 CA 6E 31 37 99 F4 B6 17 06 7D C1
 48 B4 3E 54 3D E0 22 E9 32 71 C0 F6 35 F1 A8 5D
 5A 16 ED 3D 1A C5 8D 60 08 4B 5B A3 31 EB 32 BB
 39 02 36 0F 08 D3 9F F6 12 C8 06 80 10 31 6E A6
 6D 08 A1 E0 03 F9 C8 0B 7F 7C A1 DC 45 E8 50 BF
 A8 59 98 6E 8C B4 79 02 C9 2E 5F 10 CE F8 50 DE
 12 4C 5A 15 09 14 A7 16 41 33 4F 42 0E 0D B3 4B
 57 D8 60 04 0F ED A5 24 5A C4 4A 0D D4 36 12 21
 CD D0 E7 46 A4 DA CA A3 A5 CF 4B A6 E4 B9 76 29
 DB 91 1C C2 64 41 A8 A3 F2 91 8B FC D1 2F 94 BE
 30 7D D6 B0 40 C7 07 DD 22 94 82 02 94 5D A7 E0
 FD 26 83 C8 41 5D DA 91 92 9F DF E6 10 30 A8 D5
 AC 85 11 72 36 59 0C 23 01 DB 8F 6D 50 2E DC 36
 51 9F C3 9E 2D 08 1F 78 4B 04 36 8C 1F 65 22 CD
 E7 BA 8B 76 F5 DE 56 52 DB 55 C2 10 50 C9 E0 B3
 F6 06 0B E1 37 0F 9A 05 63 AD FC 09 26 2E 3E 2C
 81 50 38 B7 96 79 69 13 91 BC 7D 17 D1 8E D7 A1
 13 60 51 11 AF 1C 1D 1C 2C BE 8E 2C 64 BE AF 24
 34 2F 2F 78 DF A0 38 23 17 61 8A B4 B9 85 C0 00
 92 44 41 95 66 87 13 7F 0D 1B 20 ED FB 03 9E 41
 A9 1A 2B B5 54 DF 86 1C 5F E4 DB D4 80 2D B2 6C
 38 9E D4 74 65 C7 3A 3C AA 75 44 08 0B A6 C4 41
 E5 E0 BF 26 F4 AF E9 90 E8 12 C7 CC 3E A4 89 B6
 C9 C4 7D 28 74 82 11 B7 DC 05 00 15 79 AB AB 8D
 7D A8 FD 8D 02 2F 63 B2 BC 63 78 50 51 94 1C 79
 15 6E 2E 7D 8A 70 B7 75 3E 15 60 5D 87 33 3F 1A
 54 E3 38 9F 82 B4 0C 7E 18 85 EC 6F CC BD 0A 2F
 56 E3 46 9B C3 15 8A 1C E6 38 D8 6A 7A 5D 81 CE
 07 74 E8 60 6A 79 B1 46 6D 64 7C 15 31 0F F3 53
 D0 F2 57 24 E3 81 C1 3F CE 19 64 E2 63 55 5E 78
 4F 35 DF 97 91 34 6D 0F 80 BC 17 F0 C2 97 09 C2
 6B 66 14 48 61 82 61 99 04 DD 99 D1 C0 F1 6D F9
 FA 2F 19 E0 E8 B2 C2 17 5D 2B A8 14 C6 22 84 68
 CD 6F 20 41 EA 40 C7 E7 60 53 09 FD 0C BC 7A 4A
 62 2B D3 95 01 93 C5 8E 9E 9D 87 95 43 5A 3A E9
 99 7C EA 6F 68 36 5D 65 FF 4F 5C EB A4 31 B6 23
 5D 01 1F 44 94 B3 97 8C 94 DF DB 4A 0D 3C 91 18
 BA 0E 25 C1 6F D5 2A 06 CB 45 C7 65 F6 D2 3F 2A
 8B E6 5E 6D D2 DF C1 53 EC 36 2C 84 1A B9 26 7B
 C0 EF 92 D0 F4 DD 14 29 54 63 07 61 D5 0F B4 40
 51 3E 53 72 C8 02 10 94 4B 78 C5 46 4B 85 DF 8E
 CD 39 83 45 E2 47 41 13 80 DD 11 A7 3D C0 ED AF
 D3 E1 6E 68 12 D4 C5 16 75 29 5D 27 EB 83 71 5A
 74 06 3F C0 BB 62 D7 87 07 0E 8E CC E4 77 62 F2
 D6 36 C8 E8 44 3B C8 9C 26 EB 3E 32 08 99 6C D0
 5E A9 46 2F 89 A3 1C 9E 91 E6 25 D6 DB 48 E9 5A
 0F C9 52 96 EC D0 1A 55 20 37 17 05 0E C6 3D 59
 CB 45 B7 43 2D DE A9 B3 50 22 4E 54 A1 49 C6 2F
 3F 19 46 94 20 15 3C 51 4E 07 6D AC A4 C3 D4 2C
 B4 D9 67 2B 31 D7 E7 C4 AF 7F D9 65 51 F5 99 C6
 D5 A3 8C 85 75 6A 9C 28 7F 39 35 72 4C C1 CB 8F
 12 84 22 C0 AB 3F 84 B1 0D C0 5A CF F2 2D 52 CC
 1A AA 39 D1 FB AB 43 B4 56 F9 3F 6B 75 38 BA 18
 0F C1 87 21 A1 04 45 9F 1F EE 28 DD 0D C7 69 AB
 20 7B F1 ED 18 9F 74 05 24 8F 06 10 0F 42 98 8C
 13 7C E3 9A 14 A7 05 8A 84 41 4F BB DA C4 FC 30
 58 B5 CF 3A 54 2E 97 D7 47 DE 45 58 3E E6 3A 63
 7C 43 34 C3 2E EB D9 86 F3 44 61 65 AD 7D 17 FE
 E9 13 CB 78 9A 93 E6 CB 46 F2 5D 7E AC 02 36 44
 FE 58 72 AF 3D 06 60 1C 2F 02 6E 03 B1 A3 87 FE
 F6 8D 58 82 84 D9 E7 EA 13 65 A1 35 E5 DE 18 3B
 F4 B8 60 12 DB 2B A8 24 97 D1 5C 86 7B 6B 57 19
 C7 A2 70 92 98 7D B0 AF B1 1C B6 77 27 B0 47 78
 51 F9 F5 A4 83 CF 1F B6 87 6C 6F 0B 72 BA 4A 95
 65 A1 53 96 04 9E 08 9D 58 FB 24 35 91 4A E2 51
 47 A7 95 B8 83 FC 06 06 F0 0D 0D AD B3 A0 A6 36
 FF 19 23 EF EA 80 D8 43 9F 6F B2 13 AE 7D 6D 9F
 ED 7D 8F 2C 87 C5 07 8B 24 83 37 E6 19 67 76 5B
 79 F0 0B C0 A1 12 DF B5 28 C4 59 7E CE 76 79 3F
 C0 74 62 65 F1 0B 62 AB 4C BA 0B B2 A3 6F D3 FF
 59 2A CE B6 F3 35 49 BC 65 47 BB 60 51 8A DB 02
 F6 EC 5A 77 E2 C4 67 BE 83 70 6C F3 37 49 AC E4
 87 77 43 59 A6 62 D1 60 30 2C 78 F3 80 3E C5 12
 0B 31 76 C5 57 03 23 63 9F DD CB B8 60 E0 D7 C3
 68 B8 0F 25 8E 97 4D 54 CB E3 A1 83 F2 3A 56 72
 4B BF AF E7 EA 81 A2 A9 06 C9 D3 CD 13 C9 41 6E
 59 45 D5 DF EE 51 F0 27 9C A5 ED 79 A6 51 AB B3
 2F 4D 99 75 92 82 15 8C BB 77 91 F0 D5 99 EB 44
 EF F9 D7 56 07 E1 CB E3 A9 7A 86 BF 48 22 B1 D1
 70 78 72 E7 1D 09 42 B4 A8 AD 51 35 50 47 74 D6
 6A FF 4B 3B 2A D7 93 D0 56 CC 62 F2 B8 71 1D F3
 A2 30 B9 2F 3A 54 96 80 D1 55 BD 27 19 0C 2A EF
 B8 9A C9 D2 F9 B3 6E C4 43 89 5B EC ED 41 F3 B6
 20 18 93 03 E0 16 A1 0F 3F 4F 78 47 C3 97 7F 5B
 F1 A6 7D C7 24 A1 E1 20 D0 59 72 E4 F2 FF B2 22
 74 F1 49 F9 65 2C EA 5E F9 19 99 61 78 83 47 E0
 A0 3C CE 7C 3B 8D 5E 82 A1 68 C0 C8 70 0D 51 FE
 8B 63 D5 04 02 F6 00 CF D4 0A AD 8C 7F 57 34 50
 56 C8 F4 35 9D C9 E9 C2 01 9D 91 93 B6 11 0B B7
 EF 08 5D EB 47 FC DE AF F7 6E 94 CF 53 6C C0 96
 5A 35 1D 16 1C 58 6B A3 EC 82 2C E0 A4 54 9D 20
 40 29 9A 27 CB 8F A6 54 C7 E9 37 3C C1 83 F1 85
 E1 47 A6 B3 EE 51 14 3F DD 7A FF 41 F1 B0 15 67
 EE 5F 8B 5D 7A 58 FE 16 02 2A 32 CE 96 ED F4 70
 6A 29 E8 48 CC 1E 51 57 55 93 FF B9 54 0C 94 B2
 40 1D 8A F5 64 7C 42 E2 B5 0C 6D 23 FB E7 07 E7
 EF BD F5 47 07 7E 5D 36 56 35 C5 07 89 4B 8D 7C
 22 39 3B 12 F2 80 C2 39 03 FC 8C 20 83 A3 9A 29
 90 E3 F3 8C 38 30 BE 81 F4 C5 FC 18 D9 2C 46 8B
 43 F6 7A CA 47 FA BE EF 4A 72 23 B4 7D B2 F9 E2
 78 50 FE EA BB 7B BB 67 4E 87 4B DF 66 EA 96 28
 2B 1C B0 4C 00 59 B7 26 5A F9 68 31 00 C8 23 AF
 60 E9 9C 48 7C B6 2B BB B2 07 0E 59 FD 3A BB 22
 18 57 57 10 7C 93 82 7C 1D C9 C0 A2 04 2E 57 FD
 67 FA AC 36 76 1C 3B E6 C9 21 14 9C 98 E9 C2 A2
 6B 99 4A 63 F5 26 AE 98 4A D0 7D 66 2F CD 4E 37
 A8 4B B6 E1 EF 4A F6 E9 4F 05 B6 5C 3E CF CC A0
 F2 E6 D7 26 4F 0E DF BF 83 36 A2 BF C3 11 5A F8
 AF 55 15 CD 72 C1 71 54 20 EE 1D 7C B7 D9 B0 BD
 71 92 11 54 98 A3 2F 2A F0 F2 8B 47 25 68 EB 36
 45 B8 B9 4A 15 9F 78 28 C9 1A 90 F7 DB 75 FA 80
 AE 71 D3 CE 29 EA CA B5 10 7C 62 6C 35 FD 15 DE
 2C 28 55 A3 06 41 A5 18 F5 32 C7 37 A1 27 0A 27
 1C B2 5C 77 89 BF E8 64 68 A3 F8 AB 44 75 0D BD
 B5 B4 02 F6 4D AD 2D BE 2F A0 8E EE D0 69 E4 42
 B2 4E 61 82 A8 94 EF 9F 96 FC 53 79 B5 28 EC 3A
 71 79 0B 5F B7 12 EE 8A 3A D4 7A 7E 92 2D 16 12
 EC B0 E9 B4 3C 07 B3 36 82 AC A0 DC 75 7A ED AA
 75 BA 8E 22 53 5C D3 BE BB 05 E9 6D 82 4D 7B 34
 44 12 D3 F1 E4 27 FC CC DC DF 20 F1 BF 27 4E 59
 49 CC 5B A7 9C 48 6E 50 D8 3A FE 67 67 A3 FB 8A
 CE A2 91 85 7C 8E CB 89 77 49 B6 2F 5F 7B D5 11
 4B B0 D7 27 08 EE 48 49 6C 62 F9 69 E0 BD 15 0D
 75 65 55 0D C0 4A 19 58 37 FD 78 83 C8 4F 4F 94
 31 7E B6 30 41 5E B2 10 57 DD EF D2 55 37 EB F2
 13 BE 84 51 58 10 57 88 FF 7F DE 61 01 F4 06 C4
 C1 03 C9 BF 58 93 2D 08 15 C1 2F A4 6F 54 69 8D
 E5 28 4B 68 9A 6D 68 44 66 BA D0 36 F5 42 8F FD
 83 ED D9 10 06 38 92 2B AD 5F D3 BF B4 10 F4 6A
 BC E3 0B 6A D2 FA 75 20 69 D2 17 11 68 4F 9E 6E
 BA 5D D0 9F 3F B5 D5 70 A9 23 0F B2 3C 26 DC 5F
 9C 54 C3 EE 2A 83 CF FA 83 71 30 EB E2 14 BB 62
 C0 81 60 9D 8B 76 10 C5 6B 20 82 BA 5A 43 33 1C
 68 40 7F 9D FC D8 B6 89 62 AD 7F DD 8F BB A5 13
 1A 36 B8 BE 5E FD 2B F7 1F A3 39 13 0B 40 0A C9
 4A 66 42 21 27 B5 6F 66 61 4B F0 34 CE 5B BC EA
 83 B6 21 A5 26 B9 16 4F F0 3A B4 0A 5B BC E2 8A
 EA BC 04 31 17 5E 87 62 4C 9B 18 39 E2 FE 87 EB
 33 72 AE 07 5D 31 B4 75 B0 B7 12 DF E0 EB 0B 8F
 06 30 29 14 AC 99 A3 1A 72 2F A9 D3 3D A1 24 E2
 74 44 08 F2 0D 0F 72 75 FD 55 30 1F ED 9A 03 F2
 AF 4A BA 46 80 07 0D B5 A4 BC 5B 92 5A 37 92 31
 CD 73 14 62 43 CA D0 AB D0 99 EE B5 08 6D FB 68
 AB 03 E5 E8 67 3F DF 02 FF C3 19 61 1F A8 81 B5
 E8 03 07 C1 4B A9 CD 1D 99 93 71 9D 8B AF 89 93
 C8 36 82 98 E2 FA A1 72 AA 25 85 39 19 19 E5 F8
 14 91 4F 9F 99 4B 72 AC C8 B0 EF BE A8 A0 CF 3B
 E1 9B 3B 51 1D F3 24 DA 2A 67 B7 60 40 37 DA DD
 48 1D 01 D1 A9 F9 03 BD 56 08 70 14 55 5D 80 67
 51 C7 61 CD 86 D2 73 8F 34 CD 8C 02 D7 8F EF BC
 E0 63 AC 2F B8 C3 32 80 E8 39 A8 08 37 5B 12 2D
 D5 FA AA C1 6D 9C 75 C9 B9 BC B4 01 B2 47 07 B1
 67 81 F3 82 61 D4 03 A6 53 B5 E1 83 5E 54 0E DE
 E2 91 E6 AB BF 5E 8B 33 8F 13 46 D7 0A B9 ED 8C
 C1 84 35 9C 27 1F 7E 51 FD 04 71 C6 32 0B 81 F4
 F7 DE DF FB 36 E2 A0 70 C9 EC E4 D9 4B 06 B3 38
 25 9C 68 84 08 68 4A A4 26 B2 FC 42 9D E5 46 02
 8C 26 44 33 6D 55 F7 4F 02 67 24 27 88 8E 16 EC
 2D D1 29 57 75 CF 7A AF FE E1 AE 3B 2C 78 39 C5
 C3 A8 56 85 DD DC DC FE BB DF F3 9F FA 2E A7 3F
 CA 2C 3F E9 71 FB 32 BB A3 BE 4A 9A 9C A7 0E 90
 83 F2 DC DD D1 AC 80 6E A5 65 99 EF 92 97 EE 94
 08 CA 1D 5D 29 14 80 6B 79 19 AD DE 61 95 62 00
 42 EB FA 25 75 A2 51 69 67 13 8A 6A 5E ED CC 4D
 FE 6D 45 97 5D 53 C6 0A CB 9E 10 C4 F6 CD 33 FC
 6D 40 56 B6 9B 96 5B 79 6F 59 F8 36 4A E0 01 B5
 9F 10 15 06 45 91 07 33 F0 D7 35 AE 89 BC FC 86
 05 5E 13 EA 5C 5B C8 C1 0B 1B 57 FA 55 E4 D5 E1
 11 3F 70 43 24 7B 94 60 F0 22 64 DA E0 21 B5 E2
 5E 41 14 2C 4A 0B C2 9A B1 1B 2F 61 75 60 02 E8
 FB 8F AF 95 78 53 59 C5 84 84 31 E6 51 F7 20 00
 D0 1C 70 23 C9 AE 70 6E 35 F6 A3 40 AB B7 A2 4B
 7D 56 5D BB 5E 90 9A 1C 54 CC F1 FE 55 91 72 D2
 65 3D EE 38 9B D3 B1 8F 44 4E 72 E4 A0 0E 65 EC
 86 55 75 0E 7A 2D EE 4A 6F 7F E2 5A 44 DB 2C 4E
 FF 69 AD EF AA 86 52 B8 0F B1 19 80 C4 FF 4F D1
 54 74 3D 81 F7 7A 5A E8 04 64 4D F5 BE 6D 20 6E
 F9 8C 0B 4E BE 33 90 64 96 F4 22 2E 19 B7 95 59
 64 82 25 58 0A B5 8A B2 61 8B 67 E8 AE 26 48 79
 C2 76 3A 82 9A 77 F3 6B C4 AD B3 26 87 54 2B F3
 77 F3 00 76 04 A7 22 5B AE B6 12 6D 23 3D 8C F2
 AD DF 3E F8 31 55 F2 B8 26 E0 E0 18 AB B4 67 29
 E2 D0 CE B7 2C 87 AC 36 90 6A F4 02 5B 11 95 32
 0E E2 4C 67 02 A1 34 91 8B BD 28 8B 4D 65 23 F4
 B4 5A 61 8C 5E 01 AF A5 75 9B DA CF 08 7E 07 C2
 70 E5 DC 29 47 3D 59 66 F7 5E A4 7D DD B2 DB C6
 BC 6B D0 09 9F 3A 9E 2A 50 00 5C 67 FB F0 7A A7
 93 8E 9B 60 86 AB F0 6C C7 E1 84 2D C8 35 8C 73
 5C CA 89 DA 44 5D B9 83 2C 81 09 CB 01 E5 97 EA
 7C B7 D5 6E 29 CC 24 94 93 99 9D 36 12 FD 54 49
 32 04 0B 59 48 B7 FA C2 35 A1 4C AA E7 72 A6 0B
 28 96 C7 92 C4 16 23 30 CE C7 C4 31 22 E6 84 D5
 7E 0E 48 BB D7 1C 95 A5 9C 6A F2 71 B9 8C 4E BF
 DB CA D4 8B 06 C8 C8 96 B1 E6 40 E4 96 D3 B2 65
 0D 9C AC FD F8 1B D7 AA F2 E2 A1 40 F7 23 B2 85
 94 A4 28 C7 DB 16 18 E3 82 8B A0 F1 90 40 88 0C
 54 79 D4 31 14 D3 65 34 78 4E C8 37 86 19 C9 7C
 19 D2 E0 01 09 48 C5 56 93 4D 29 40 D6 38 58 0F
 85 38 05 07 80 E0 57 DA CD FE AA D2 2F 59 4E 45
 37 E2 C1 F7 77 A4 DE 4F A0 4F 7E 54 7D 88 94 48
 AD 8A 9C 7A 3B 10 47 93 15 1E 46 30 30 03 5E FC
 C0 2E 74 B7 C1 38 01 91 D8 8A CF CC 3E 47 9A 59
 0C F9 99 7A 1C 70 13 04 DE 4B 69 E1 35 27 A5 AF
 97 41 EE 64 6A A2 BB F7 99 F0 1E 73 62 15 E7 D1
 A7 23 44 FB CC E5 24 50 FF BE E9 A6 A6 0F AB 7C
 31 BE EB 93 1F C8 E0 50 1C 78 61 D8 A7 11 D6 59
 98 92 9A EA A5 FE 3C 58 3F 25 F0 BA 32 4C AA 81
 F7 92 A1 07 3C 8C 50 D9 22 6C 7C FD B3 9F 21 F4
 EF 81 FC 92 E0 99 6C 7C 6D 3D 33 1E 7F 42 38 F9
 5C 06 B2 58 BA 31 95 1B F3 9C 3B D8 BE D3 8C 9C
 AF DF DA B2 8C 41 FE 77 D6 8C DB 51 C0 E4 F6 3D
 EE C2 56 85 67 C5 7B B8 2D AD B7 51 B1 41 E4 5A
 6C 13 3C F0 F0 A0 98 FC F2 DB 7B B0 2A 17 26 18
 DF D4 30 45 BD 4D 8C 2A D7 4F D6 14 DC 44 10 AD
 FC AC 19 70 BB 17 33 59 77 F9 BD B5 54 28 D4 3C
 35 3F F1 36 7D 34 88 F0 BB D8 57 6B 28 48 58 58
 BC D1 97 CF 4D B3 1D 1E 9F E4 52 F4 51 B2 7A 83
 D1 27 23 7D 7F AA 5B 73 5C B2 B1 FB 72 8B 79 73
 AE F5 34 AE E5 61 60 50 42 6D 51 52 BA 54 DA ED
 53 B1 BA 46 B6 08 90 AE D0 2D 39 F3 86 17 00 A6
 16 80 0F 40 2D 4A 5A F4 19 83 F2 EB 3B D6 74 D2
 FC 80 24 40 59 AF 64 AD 33 A4 60 30 23 57 19 A8
 ED 72 FD 5D 77 1D 5B D8 C3 B9 9D CA 42 0A 6E CB
 37 5F 0B 1D E3 CB 6C BB 66 2E 04 31 6B 13 06 DE
 D1 B5 22 7A 57 5F 68 96 B5 2D 50 C8 1B E7 F2 4D
 0E 13 5E 93 5D 4B 91 99 EF 40 EE D6 17 CE CC BA
 02 B4 EC CA 9B 83 CE 20 4D 35 96 00 7C CB A3 EB
 BB AC FB 46 0D E9 8A 44 95 A4 51 C7 65 2A E9 8B
 67 FD F4 39 11 42 47 C3 43 34 88 B4 CB C4 DD F0
 E6 B9 DD 6A 45 F0 AE A2 2A B4 30 D2 76 C6 5A 2B
 26 86 8E 3D 7A CB 38 05 5B DE E3 0E 60 8D F5 57
 56 17 D3 7F 69 AE 26 B8 AA 57 CD FF E9 88 0D ED
 B6 B0 5F 7C 79 31 90 49 58 27 70 6A 4F 11 1C A4
 BF D2 4B A0 D3 FD DA 9B 3E 8C 01 B5 5A 4E D3 FC
 8F 8C 8C 43 ED C2 FC E5 56 7E AC 41 7D BF E1 F8
 4E 59 F0 C9 06 77 6E 75 14 45 36 2D B4 36 3B 09
 68 75 EA 61 D9 0F 28 DA 79 82 E9 61 EA 7F B1 99
 8D CA F2 95 DA 59 00 E4 2C 5E F8 6B 52 C5 64 7F
 89 65 A2 BE 27 E6 E7 56 C2 CA 09 71 98 09 63 1B
 68 D2 35 9D EE 56 69 B3 A2 69 6F 30 35 29 EC 52
 9B CB 61 34 39 24 E4 10 90 98 C0 55 EF 16 39 49
 DB B6 B9 7A 2B 9F CB 32 D1 9C 51 C3 3E B3 72 E0
 99 3B BD BF D3 B0 9B 9F 05 3B 6B 77 36 C4 29 ED
 CA F6 A2 DA 19 BE 7D E1 76 1B F5 DF 92 68 07 39
 F7 8D 84 AC CE B3 1C ED A3 34 9C CB 4D 1C 81 82
 0A FC FE 62 FA 31 10 7C A2 CC 3F 4C 18 8B 8D 7F
 81 49 9A FC CB A5 3C 45 5A 0F 4B 8D 95 A6 51 57
 A9 4F 8F 4E D0 81 36 69 63 B1 95 B2 81 CA 7E 97
 E7 85 EE 5D 66 BC 2D 48 E5 B1 B6 85 84 F4 5D 0D
 50 D4 DE 22 3D 57 57 AB 68 38 42 4B B3 DA 00 19
 F3 88 FE 51 5D 56 3F D9 9B 33 7D 46 EA CD 5B AB
 48 44 A9 AB DD 5A F4 11 F5 35 B2 3D 36 F6 00 9C
 9C DA 86 5C 31 7D E1 2D 7C 16 2F 8D 5C 50 BD 24
 43 0D F7 E1 41 D8 BB F0 8B 4F E1 3D F1 FE 93 B7
 88 6C 7B 7D C7 54 04 DB 32 EA 51 D9 C2 61 56 43
 58 D7 5B 91 C1 2F 88 C6 B2 C8 36 7E 67 73 4E 4B
 07 38 8C 66 A8 3C E5 B7 D8 47 27 6C E3 27 1C 34
 5F 58 78 60 0A 5F D4 79 12 7A 51 81 04 6F 19 17
 DA 0A 8D 05 42 DA 0C 12 D7 38 20 2E E5 70 51 80
 5C D0 B9 E2 50 73 42 FB 92 DD F1 68 BE D7 6C 95
 A9 F3 F0 F1 8D 53 1E A5 3F 4E 3B 95 E5 49 38 CA
 A0 8A 25 36 11 C4 D6 D6 63 44 7D 26 9B A0 39 38
 73 09 AB E8 8A 77 91 06 16 6D 8B E3 C1 A1 65 D3
 D2 77 18 3B BC 1E 26 97 34 47 D4 0E 4C 67 65 17
 51 D7 43 BA FD D4 06 5B 29 4F 1F 6C 0F AB 4C 19
 D8 3D 68 1C E3 99 AB 05 DE 80 BE F3 B0 09 28 C9
 3D 88 05 2D A5 C1 FB 77 AB EF 31 ED 96 1B A2 5C
 1A A2 5F 81 88 05 83 CE D5 7E B1 96 25 E1 90 A1
 07 2F 66 53 4E A6 BD F1 EA D6 B9 E5 E7 B0 02 DF
 C7 83 01 2B C9 3B 4F CD 29 99 04 D6 02 47 C3 00
 6F D9 93 96 06 97 8E 86 2B 3D 86 2C 1D 74 C0 45
 A4 FF 75 4C 10 6B 5E B1 B8 18 63 AD B6 61 D2 53
 53 3E 35 66 9D 50 5B 5A 7D 7C 1D 0E D5 C6 7C D5
 DB AB D7 AB BF AF A8 AB 79 C1 98 D0 67 2B 60 04
 9A 3B FE 43 D2 36 3D E2 06 28 48 C7 51 D9 A6 4C
 8B 85 ED 64 9A 31 32 A1 C4 8E C6 86 D6 3E 65 CD
 E3 3E C2 BA 7F 9C DA CE 03 83 EB 5E C4 88 3B E9
 BA 8F 89 15 42 DE BE CA 05 8B D1 15 CF DF A8 C0
 A5 4B AF 74 B2 73 B3 58 3B 82 92 96 B5 31 08 A7
 47 16 EE 82 E6 91 6F 95 15 83 38 7B 58 C5 7C 35
 F4 55 BD 53 ED 9E 98 8D BA D8 B7 99 F6 3D D4 45
 D1 78 4A 76 02 30 2B 02 BA C3 2C C3 58 8D 4C F7
 2A 2A E6 31 7D C4 42 43 62 B5 86 30 2D 89 B5 1C
 EA 4C A7 63 5F F4 84 BE DC 9F F0 DE 00 44 52 6B
 9F C3 D0 E7 2D 21 3A BC 33 B7 22 25 A8 D3 C3 DB
 D1 23 61 F7 02 98 7E 7B E1 A7 2F 88 BD FC B6 71
 4F 7B 91 29 57 25 A0 23 0E 08 15 E8 AF AA 86 1B
 33 1C AE 48 06 02 76 56 CC 17 C5 C6 BD 46 04 27
 22 3A 2A 3E 41 88 27 42 BD A7 D8 9B CB DA C0 F5
 CA 3F B7 52 BA 4B 8F 1A FF 07 04 5D 77 4B 41 57
 CC F9 6E 43 33 05 DB 61 E5 5E 85 49 07 FC B3 FD
 60 05 E1 E4 B9 D2 3F 8B CE DB 73 E5 43 2F 9E 5C
 88 1E 83 4B CB 37 14 8D 3A CE CE 6B F0 CE 6D 19
 88 98 F3 4E 22 12 C3 DC 09 52 F4 DE 5F 95 9D AE
 61 E6 45 20 A2 50 98 9C 05 05 45 C5 1C E6 F3 A2
 0F 71 64 E3 8C 14 B0 65 29 0E DD 7D B4 CD 11 B6
 E4 91 F9 0E B9 EA 42 DD B3 99 F2 09 5F 49 11 F6
 AE A0 43 80 08 BA C1 30 32 3E 07 D6 FB 68 2D C8
 79 D4 11 51 6B FD A5 6F E6 81 FD EE E8 10 36 D4
 B4 45 5D 51 AA BE AB E2 3D 6D 94 16 15 9E 1F A6
 C4 06 27 AF F2 AB 2F A6 B3 A4 39 65 7F 3E 36 F4
 97 45 B7 21 7B 60 E0 BE 48 3C 00 4D 89 EE 77 EF
 F6 1D CD A3 83 F1 CC E0 39 8E E5 0E CA 77 A0 82
 0C 7C 79 D7 82 EF 69 F9 28 C1 0A B6 3D 82 FB 1E
 65 14 CD 76 58 CD 55 B8 12 B5 C7 3F F4 57 40 78
 41 B3 60 4C D8 82 21 57 49 0C 6B 86 FD D1 2C 1B
 E4 08 6E BE AF 88 52 D3 34 B1 DE 96 3B 13 B5 5F
 B9 B6 86 29 41 CC C1 18 C9 D5 FE 65 C6 8A 90 03
 C3 3E B0 AD A8 32 C7 06 68 39 78 BE 10 50 73 C2
 12 3E 0F 09 D7 3E 47 67 85 5E 70 96 4E F7 53 E6
 30 85 94 3C 0B 16 E1 9D DA A2 69 1D D8 BD 23 08
 50 D5 F5 15 2D 17 A5 2A DE CA 4E BD C3 1E 68 F9
 EA B1 92 A6 44 C1 59 8F 8D F9 A5 A6 47 9E DE B8
 18 15 59 F4 69 A3 3D 0D 6E 27 BE 6E 1B D5 2B E5
 26 47 A0 DE EB 36 5A C2 37 7E 0E 28 CF 16 F1 CB
 E6 FE 3C F8 82 95 36 3D 60 45 47 2E FC 2E 6E 2F
 5A 07 AB AD CE EE 76 84 12 70 92 C5 B8 E2 5A F5
 C5 2A 43 89 CB D1 EB 74 BD B8 92 C2 D8 BB BC BE
 D7 5D 2A E7 DE 79 72 99 B2 0E 02 05 CF 67 51 81
 22 2C D7 84 1A C7 74 23 A1 59 30 21 A0 6D DC 82
 81 63 65 2A 3E C5 DC EB DF CB 61 C9 ED CB A2 F4
 60 1C 51 5A 91 0A B2 39 AA 8A CD 73 92 97 6F 16
 D2 86 1D 5B 82 5B 3D A2 68 FE 94 30 D9 4C 60 4F
 3A B4 9C 84 04 9C 53 E4 C2 CD 70 94 5C 04 F2 78
 19 8F C9 1B 13 D8 54 6B FA 1E 68 90 B9 FA A3 AB
 66 CA E0 27 E6 01 F1 84 0F 84 5C A8 5B DD 8C A1
 3C 8F 1D FE 61 71 A2 6E 4B F3 71 12 5F 17 17 13
 6F 55 99 0C D5 C5 96 DE 9A B9 B5 19 D1 47 5A 39
 BE 77 AF 6D BA CF F7 7A 80 5B D5 3B BE C5 A7 54
 D3 3A 6D 51 2F 97 16 03 53 45 6F 6A 09 4C 33 70
 76 0B 42 A2 1B 21 BF B3 FC F8 D2 5E E9 0F 8F C7
 D6 4D 20 D6 C9 3E 62 81 DD EA FC C7 6B B8 3C 52
 3F 83 FA 50 6B E0 D6 B9 D7 DC D2 D0 50 ED C1 6E
 6B E2 9B 28 12 44 1E E0 88 FA 29 5D 67 7B EA 3A
 1F 19 68 84 2D 9C 5B E3 A8 EE 32 80 21 6C F5 CA
 E6 6E 20 0A A1 90 76 55 64 B0 41 0A 19 DA EA 6A
 44 8D 37 D5 FB 8C 6B DB BB 2E CD 27 7D 01 05 4A
 EB C2 F2 ED DB ED 81 DD BC D5 84 F9 17 02 22 EB
 FF A0 1B D5 FF A6 2F C3 BF 48 4D D0 6B 8A F7 3B
 02 B2 54 38 8D 1A E7 86 AE 00 C4 16 C5 2C D3 6F
 26 A7 AF 3A 67 44 AB 31 82 D9 B5 49 23 CE 8C FD
 F1 F2 B5 91 6A C3 39 EF 1A 44 30 8F DD EE 74 64
 7D F3 59 F9 1A 11 E8 B1 31 17 77 83 19 95 5E 22
 6D B4 1B 60 E4 B1 F5 24 3A 53 A5 FD B9 42 A4 16
 07 88 97 7A 3A FF 7F 8B A6 1E 03 7D F8 8C 68 A0
 B1 F4 1B E4 F3 26 52 A7 CC 75 A6 50 DA 83 30 6C
 CA AB 43 D8 FA CB 1A C6 D5 C9 AD 76 91 00 32 70
 F8 DD 37 82 02 14 7B 28 E8 64 52 14 25 08 B1 38
 50 F3 32 3C 39 BD B9 1A 69 D2 13 52 DB 52 16 35
 6B AC 52 25 90 19 1B F2 B2 26 98 10 62 A2 4F E1
 00 3E BA E4 49 EC D6 71 54 CA EF 79 D5 DE 56 E8
 04 1C 05 E3 9D D5 BF 2D B5 67 92 EE 38 E9 10 45
 6A 9C 7B 02 C4 1A D0 36 FD 20 72 36 8C AC D7 B4
 14 E9 B4 C6 73 3A D0 AC 1A 4B A3 AF B4 3B 79 33
 88 53 9E B3 EE 9D 35 2B D2 B5 D1 1A 5D 45 C7 B3
 5C E7 B1 19 9E 0A EF 6F 22 D9 D3 C7 51 3E F9 38
 48 DD 06 52 B6 4E E2 30 4E 58 51 D8 0A 9E 6A D0
 98 65 3D 5B 59 8B BC 0F 36 B7 B9 60 CF 5A B0 A3
 90 DA 63 B3 60 46 83 47 C8 B9 87 7F 2B 93 41 23
 CB E1 17 16 F4 FC 41 AD 6E 3A CA FC 2C BA 36 A3
 6B 46 A0 22 7E 34 26 AA A8 BB 50 7F 1A 83 31 2D
 8D BD C9 ED DF A9 3F E5 A9 98 27 93 FB F2 B2 2A
 80 86 23 C2 60 8C FA 13 B2 AC D4 65 25 1C 50 FD
 AD 0B 18 20 5C 9B 4B 50 05 AA F8 BF DE D5 D6 CC
 94 35 D6 E0 96 F6 3B 8B 6D 21 B9 3A 3F 86 E2 A7
 F7 A9 26 72 6B BE 91 67 B3 1A 17 68 89 BA 78 FE
 D6 77 99 B3 25 AA 0F 49 9C EB DA 67 00 75 BC EA
 AB 74 33 1C DC 4C 83 7A B4 44 03 E2 E4 E0 89 F2
 51 43 42 7B 19 EB 7B E8 8B 9D 28 96 C1 15 D9 40
 17 1B 39 57 2B 56 15 B0 3D 80 F8 4B 70 D1 9D 1C
 E7 6E 7A 6C 90 AB 3F 13 98 57 3E ED 13 1D 06 D9
 BA 00 A1 27 C4 71 0A 83 3B E4 12 B3 B0 70 86 42
 C6 C1 C2 B4 75 49 38 A0 96 BF 19 9E 91 73 D0 9E
 68 34 46 EA 85 AF 09 AD 05 D0 63 EE D8 54 91 A0
 85 11 CA 1C BC BD 1B E0 33 1A 04 E7 AA 63 E4 1F
 43 45 17 44 2C DF C5 9E 92 CE 8D C3 77 A6 35 E2
 65 21 57 E8 84 5E E3 B2 55 B7 43 61 47 68 BE 08
 E2 AB 63 F2 05 60 2C 43 F5 5D 36 74 91 9F E4 4D
 98 34 10 26 85 F9 89 EF 30 37 9A 3C 2F FA A6 D5
 5E 63 64 89 0C F2 2C F8 7C 7A 71 BC 3E 36 C8 00
 84 9D E6 23 10 86 91 15 CA D3 14 DF BF 6B 5B 8D
 72 78 4E 8F 4D 09 8E 92 52 53 37 B9 32 78 4C A2
 8F 25 4E E5 B6 0D 2A C1 8E 6A CB CC 9A C1 78 5A
 92 5D 97 2F 83 52 1E 9C 8A 86 68 F0 77 D2 56 E8
 02 D8 9F CA 28 A8 28 A4 C6 6B 6C 06 0E F3 0A 26
 E6 1A 97 21 E0 AC 01 B1 5F DA 3E AA CF 81 A8 6D
 A1 4B 85 18 2A ED B8 4D 72 FD F9 10 EB B8 06 B6
 31 5F 25 9A 29 FB 9A B1 8E 86 61 D1 56 83 25 7C
 26 3A 41 AD 15 BE 4E 6E BA 06 5F 80 31 53 8D AF
 D5 69 09 71 D1 6C C3 B1 1C 4A 76 D5 90 F0 B5 A0
 19 1A 0D 2C 83 46 E3 A5 97 FA 6A EE FB 8F EA 8B
 1E DF 96 43 84 F2 F3 6E 4F 44 53 E5 F3 44 8A 4A
 04 4E A0 B9 46 B6 1D 8A 48 BB C0 95 C0 CC 84 FF
 96 0D A7 81 05 D2 21 43 9D BE 70 65 4E 3A 89 C9
 03 20 8B 67 72 82 80 FC 5D 6A AB 95 A6 06 45 90
 F1 51 B4 B4 F1 D7 CA F2 24 54 8C D6 54 1E F3 1D
 6B 9A 7E 68 A7 69 DA C3 60 27 6B 06 03 D8 D0 B1
 FF 15 81 CC 06 56 51 CA 9C 76 D4 3E 88 7B 97 63
 C5 40 A3 4E 20 9A 4E B0 C8 42 F7 89 7D 5A B0 4D
 7A 20 27 37 6B DD 28 0E 5C 74 43 F6 D6 C5 3A 3A
 00 1E 77 99 94 3E F0 FE B5 DE 43 5D 2C 68 30 2C
 91 CA 38 22 33 B5 B0 91 23 78 48 70 24 FC 5B DF
 E2 B7 BA 16 50 9D 9B FB F8 A3 55 FC 41 D0 29 51
* End 1354221121 2878801082