* LTspice Encrypted File
* 
* This encrypted file has been supplied by a 3rd
* party vendor that does not wish to publicize
* the technology used to implement this library.
* 
* Permission is granted to use this file for
* simulations but not to reverse engineer its
* contents.
* 
* Begin:
 A4 57 33 73 1F 93 02 DD 6B B9 FA 9E B4 B7 ED F1
 46 B1 52 38 E4 6F 8B 54 DA 6C 5B 6A 7F 71 67 63
 51 73 D6 50 45 71 4D 1A 60 11 E6 42 10 78 4E F5
 F6 AB F3 42 39 47 80 F6 D2 84 7A AF F6 A7 C7 C0
 57 95 C8 03 F0 A4 04 53 54 B7 FE 46 62 E9 77 37
 74 2D A7 A4 9F B9 46 72 AE 22 48 03 95 86 31 81
 6A F3 44 0F 0E A0 19 75 FA 4A 2D 22 65 E0 37 85
 42 50 73 75 A8 E0 87 96 A7 4E 00 CF F9 39 82 DA
 01 92 81 8E 6C 80 9B 20 BA BA 42 BA 43 55 E7 34
 D5 48 43 D9 AC 59 35 17 23 86 F6 60 C6 68 34 0B
 A4 78 3A 03 35 7B 84 D6 BC 5F 97 A4 27 75 7F 80
 6E 7D C6 12 B7 D2 A5 49 36 C4 3B 6A C3 D6 8F 4C
 31 B4 0F 5D 78 C0 3F 13 31 57 BE 93 9D 85 12 15
 94 6A 6E FA C2 BB C0 6C E3 AE 6C C1 08 66 D1 A5
 58 79 40 64 A6 27 B3 89 93 28 10 56 3A 6F 06 B8
 DD 34 D6 06 80 A0 34 46 BF 87 73 37 B1 31 81 4C
 78 BA 79 29 75 C1 8A 44 4B 95 2B 2D D9 86 A4 B1
 A5 A3 17 66 39 3D A4 C2 B9 90 59 1B 9F 85 4D FB
 49 04 FF E0 38 4A EC 49 CE CD 3E 1B 96 95 1B A6
 1E F8 37 A9 7E 39 81 73 AE 91 EB A5 83 24 14 B7
 51 87 5B A6 5E FA 85 B6 22 F6 0F BB F7 FA 43 DA
 51 00 5A FE AB 81 63 D9 10 6B 47 5A B5 F2 4A 10
 EC 00 A9 C2 7B 29 5E 03 03 B3 D1 B9 C5 F4 A3 99
 88 7F E2 E7 76 25 95 DD 31 22 EB 2B 37 AB 6C 1A
 38 2E 92 A1 88 02 2B 06 98 F1 9F 1D B0 3E 1E A5
 F6 40 9D 1B 7C B7 35 1C 3D 37 80 17 2C BA 4E 3C
 1C 06 96 C7 55 03 82 D4 E0 67 FF 45 D1 D5 1A EA
 84 DE 01 66 41 11 25 B2 A2 C4 C9 82 68 83 F0 13
 DB 39 C1 62 0E 9B BD DE 91 3E C9 74 27 10 91 23
 71 16 D3 14 0A 6B AD 6B 79 5C 8A 8A 2A F8 32 1F
 2D 36 BC A4 FE 4D DD B1 9F 96 B7 D5 CB B1 CA BF
 B8 15 7B 57 9C D5 82 7E 79 55 D2 5A 46 43 9A 0B
 EF 2A 42 68 73 BC E3 BF DF B7 B4 23 3B CB 00 0E
 43 89 32 BF B7 9B 12 C8 7D A7 6C 0A 92 DF 08 F8
 23 50 FB 0B C1 E4 30 C3 43 28 FE FF 45 D7 10 FB
 85 07 8C 92 11 D4 B6 99 B5 F5 DA 00 DD B0 D3 15
 E0 CA 87 A5 B0 52 93 20 50 F8 8C F6 6F EC 5C 5D
 8C A6 9A F2 3D 43 E7 95 E7 B9 0B 31 4A FD D7 2C
 3A 7E 2B B0 E3 44 8C 74 BE B8 42 A6 64 68 2E 6D
 68 46 B4 DD FF FF F9 13 EA AD 0F 35 BB 77 2F 2C
 53 22 1A E8 9F 79 05 59 21 0B 2D A1 ED C1 1A D7
 CD 22 9B B6 B6 70 1A 76 3F FC 69 C5 77 75 DF 9A
 26 09 6F B3 6F 0A C6 45 7C 7E 04 20 A5 27 1E B2
 73 EC 1A C7 1D C3 37 17 00 80 9F E3 B3 4F 80 74
 3C A8 30 48 3E 6F 9A 87 E5 A4 18 01 92 9E 1C FA
 D1 B1 2F FB 40 D4 68 6A 2B 4C 3D C3 42 52 5D BF
 B1 F9 40 04 31 90 6F 03 B7 37 64 DE F5 E7 C2 89
 F0 54 CC 2C FC 4D 06 38 74 A6 1C 11 E9 EB 25 4C
 12 9F 55 51 CF 38 88 60 EA 39 53 7A B8 E5 AA 22
 46 20 F7 52 FC 75 6E BB EB 40 63 CC 31 E7 EE 33
 72 93 F2 5B 43 8C 2B 07 45 0F 61 4B EB FD 76 91
 B5 07 EE 42 FD 5B B5 37 A9 C7 F4 72 27 7F 69 EC
 0D 3B D8 79 C7 29 B8 C6 7C 31 63 6C 08 2E 71 92
 35 B3 17 58 41 F2 2A 46 C2 69 93 E2 4F 76 86 0D
 98 94 56 89 CE 3B CB 6D B3 7E 09 ED BC 87 22 97
 7A 29 70 EE 13 20 8B 1B 6B 0A D7 C7 F4 C1 89 69
 0B 8C DE 05 0E 49 FA E5 8B 99 C0 6F AC ED A2 89
 DA 05 67 49 8D 26 9A 08 66 54 36 A8 F2 8E 50 F3
 F3 83 3B D5 83 C8 47 09 54 A4 36 65 80 D8 8B A3
 4F 80 4A D8 F2 D9 EC 9E A4 50 25 B4 74 D1 28 B7
 88 F9 54 70 CA E3 3C 21 77 F3 07 9D 20 05 A5 00
 3E 7D C6 16 EC BD C8 DD 41 AD 12 B5 54 4A 14 63
 66 8E 12 20 87 C0 18 FE 72 7D D2 7B 03 20 D5 C9
 A1 7E C6 DB 69 AF 99 8F 4A A9 09 E4 BE 0A 8F 85
 F5 77 53 F4 D8 6B 7F 50 FA 89 74 23 D9 3D 2C AC
 D3 39 A1 70 0B F1 7E D0 C2 E0 B5 95 69 55 5E DA
 29 71 41 48 13 D4 B2 EB 7A 8E FD 08 01 FA A5 5D
 91 FC 2F 15 07 54 B2 81 84 DC 77 19 C5 B8 1F 18
 6C E7 15 6F 78 B3 85 34 D2 CA 0B 91 88 51 85 36
 3F 3A 76 24 61 6A BC DF 9A 82 82 28 23 F5 8A C2
 5D DE B5 F8 23 59 0A 0F F0 BD E2 7B 2F EC 1D E1
 75 3F CA 3F 01 1B E3 2B DF E4 F4 38 78 B9 CD 23
 28 FC B9 52 2B 80 D4 03 DF 01 E8 FF 52 78 26 20
 2D 59 CA 53 25 FE 7A CC 6D 4C 75 C2 84 14 86 EC
 32 2F 74 2A A4 FB 7E AF C3 FE CE 00 75 B3 98 05
 1A DA D0 E5 18 75 33 66 E0 24 80 A0 06 54 D0 F5
 44 FA 1C 33 40 38 A3 57 FC 5D 1C CC 47 7E D6 BE
 57 22 56 57 9F 32 7C C4 D6 F0 42 E8 9B A3 82 FE
 59 76 60 0E DA 96 F9 8E C2 EE 1A 84 8E 41 BB BA
 D3 DB 48 E8 EB C3 E5 DC 96 46 2F A3 59 FB B0 6C
 C5 8C 43 C7 AF 17 E2 83 53 04 75 D6 AA CA 99 D1
 B3 FD 08 0A C5 34 9E C8 4D 24 80 42 6C 1D 07 7F
 C9 51 88 51 0E 99 C0 E0 47 31 78 DF D8 5D D9 02
 66 EB A7 45 0E 40 94 23 27 BD A4 82 2D BF 99 1C
 1B 7F 1C 53 D3 E8 A2 4D 4D FF 43 1A 3D 83 D0 43
 EC 52 29 BE 3B 73 E4 19 C3 B4 62 3C 11 1A 6E EA
 1A 60 16 31 B2 06 8A 37 C2 CF 22 7C EE 6B C9 BF
 2B B5 F5 A7 7E 15 CB 9C C0 B1 ED 01 17 72 3A FE
 FC 4A BC FE B0 B3 30 8A 5D C8 14 D4 91 34 03 29
 C5 48 EA DF 34 FB 35 A9 00 9C BF 08 41 BF AA A1
 C3 16 D7 E9 C2 AD 15 ED 15 B0 D6 9F BF 02 7F 0C
 23 B0 63 B9 B1 82 10 BE F4 DB 27 BE ED 06 19 7D
 EC 57 C7 13 48 83 B1 6E 4A 9D 08 03 6B BD 47 B6
 2D EE 46 2E B8 B7 5D 90 24 FE B8 84 E5 E7 01 0A
 91 22 18 84 98 6D 01 CE 48 D9 13 5A DD 96 09 FE
 94 54 EF 62 F8 D5 37 86 A0 82 F1 94 58 4E 52 E7
 A2 FE C7 F1 0F 2D 64 E6 10 F6 A4 8A 10 A7 08 0F
 4B A4 14 46 E2 1A CB CB 57 64 3E 12 B1 C4 DA C8
 FB B9 CF 74 28 6B CB F4 C1 72 27 D3 FD 01 A8 06
 B7 B1 5D 28 1B 51 77 1B F0 E0 5F 0C 4E 4D 21 56
 8B A7 BB AE 7E F6 A1 5B 29 FE AD 64 B0 25 F9 0B
 7D 74 E2 F2 A8 12 8C D2 EC 49 F5 79 CB BF 67 26
 DC FF FE 43 2E 89 AE 58 7A E5 97 C7 59 4E 02 DB
 E4 36 03 9A 64 6B 06 36 09 F9 4F 13 ED 08 2B 2E
 C5 83 B5 BA 14 E3 47 DB 25 8F 50 6D 55 78 D3 3E
 31 56 05 F4 4B D9 93 33 8B 2F 90 A2 25 E5 4C 52
 39 21 5B 2F 25 A0 8E 8F 37 D6 98 F4 6A 0C C4 99
 28 AC ED ED A2 FA 71 36 BC 38 EA AD 8F 72 7F CF
 31 CB 98 3F A7 4D 19 C2 F3 BA FB AC 06 2B AE 01
 21 A9 AD 73 B4 A7 19 6E 69 29 87 59 F1 38 34 14
 56 0B D1 AA 04 1D 74 C2 CE 55 51 B6 CA E5 6C 8E
 52 47 90 7D FF C9 D3 A4 31 C5 24 90 28 D3 11 E1
 E9 D5 F6 3A B1 2D 28 F4 F8 33 CB C4 77 B1 18 AC
 82 FE 64 ED 9A 2A 27 31 33 97 60 57 EA D1 54 EC
 C9 CF 54 E3 D2 8D AE 1E E9 42 0F 97 8C 40 12 30
 42 15 37 BC 34 85 E9 66 AF 6E EC 7D 68 B1 35 86
 7E 47 13 62 4C AC CD 2D 7C 73 50 16 F6 FC 92 88
 C4 41 F6 3F 0D 52 D8 F6 A3 EE 88 72 1C 5B D0 64
 99 15 7B 89 64 E6 99 21 B4 AB 3A BD A0 8B 1A D5
 18 4C 70 8A E6 C3 6C C9 77 B9 3E 51 AD E2 D3 97
 25 27 4F 16 88 AB 70 7C B9 FE 76 1F 94 2B A8 B8
 89 E3 CF 10 37 FE E5 35 7F 48 8C C2 7B C3 36 4B
 B9 AC F2 81 0E 4B 78 4E A8 D5 94 02 EC 76 F5 AE
 43 F8 A1 56 86 7A 38 A5 FD 7A 08 2F 4C 2D BE 46
 F2 16 98 6D 40 56 10 C1 2F E2 12 B1 AA E8 DD A1
 B3 69 8D 44 72 EC E4 78 CE F3 D2 B6 19 38 D4 45
 BE 50 E5 DE BD BC 5F A0 F8 66 EA EB F2 C2 7A 12
 87 97 63 B7 BF F5 9D 2C 2D 0C A8 B5 29 78 B8 BE
 F3 32 9D E7 88 AC 1E 70 D4 C2 A1 4A 09 80 DA 15
 2E E6 0A 8A 3B BD 64 DF 50 94 E4 5D 6B FB 40 75
 8F BD 8F 4D B2 D1 F9 46 26 72 55 B5 18 AF 68 29
 AA 58 1B BE 69 D6 06 A0 EB E0 6B E6 3A F6 7B 71
 6A A9 A3 BC 02 F2 E3 05 05 09 D3 22 8F C0 5C 38
 AD 1F FF F2 8D 35 91 B3 0C 94 4A 5C B8 DF 81 0C
 70 78 11 24 28 87 E9 71 1A 0C DB BA 51 1E B3 D4
 37 4B 99 E2 1D D7 82 A7 00 AC 2A 00 56 60 A5 95
 27 AD 09 A2 1E DE 08 99 9C 61 20 F7 96 A3 AB 12
 B2 EF B9 E1 7E E3 98 C0 6B C3 5B 7E 8C 32 E5 88
 8B 7C 3E B6 D1 3D B8 E7 AB 55 4C 0F 40 A7 4C 99
 59 98 54 73 4E 9A 52 E1 60 B1 23 C8 C6 3B 1C 39
 33 63 D2 11 0F C0 D8 F6 C1 C2 21 61 3C C7 5C 0C
 92 EC BA F0 A4 E1 87 5E ED AB 6F 92 FD 5C E4 83
 39 E2 EA F5 B6 C4 EE F2 7B 75 99 30 5A EF 7D 6A
 44 36 4C B7 CE AA 5B 63 3C 5A 90 50 4C 01 B3 ED
 39 9F 74 66 62 F5 74 77 34 7F 87 84 FE C8 33 95
 E1 BF 8F CF B5 1E 4C FC CE 87 83 A3 93 D5 B7 43
 60 DD 59 AF 3C 61 F2 56 F5 65 07 89 17 03 99 88
 43 79 D3 1A 6C 30 C4 D2 B4 86 C5 DC C2 6A BF 83
 99 E0 28 A8 AC 9E 0A D1 A3 A8 28 96 9C 08 CE 69
 8A CB 8C A4 AD CF EE A1 66 88 11 F4 5B 97 4C EB
 D9 50 42 9D 30 C9 BD 6C FB 6A 69 B3 9E 71 DB 75
 E2 31 0D A7 82 CF 21 53 24 C7 17 3F D3 B5 A9 D9
 9E 1D 4B 2C AD FF C7 DD 9B F8 AD E9 89 1D AE F2
 A3 27 30 E1 DE A3 B7 69 5D 43 C0 AB DC A2 81 00
 74 2E C5 DE 44 B6 08 29 75 9B 9A 4A C0 08 46 5D
 58 BB 9B 5C D9 E5 22 4D EC FE C1 A7 8C DD 25 9F
 74 37 C9 F5 31 99 18 00 DE 37 C8 A2 77 6E 5E 7E
 D6 69 1B 2B 54 26 35 E0 EC A6 70 07 E2 61 A6 63
 E1 56 54 1C 55 02 38 73 A9 22 03 60 56 D2 69 16
 32 E3 55 CE C9 D1 E3 37 39 F7 49 F6 19 DE 95 4A
 8D 49 A2 15 48 26 FF DE FF 91 78 14 56 DF F9 45
 E2 F0 E6 F3 24 7C FF 5D 2C A9 3C 5B 9F BC A2 10
 7F 15 2F 00 24 1C 5B 38 AC 18 27 23 DD BD FC 8A
 FE FE 21 F7 65 46 E7 CE DE F8 68 79 C3 29 31 64
 2C 2E 44 22 39 3F 0C E1 46 0C A2 7B A5 C8 22 D3
 27 F3 4A 6E 2A D9 71 02 09 F2 F7 A7 A9 07 4F 86
 BF F6 EF 58 4F 5B BB 1C 1A 54 54 55 7B 25 27 CF
 C7 66 09 7B 85 CF 1C 8F 44 E4 8A 46 E9 C6 CE 69
 87 9C AB E9 FD B4 1B 1E 81 7B AC 40 73 A6 21 C7
 74 83 B9 2D B5 A5 47 03 4B 9C ED E1 FD 77 4E FC
 9A 2A EE 9D F6 91 29 C0 C3 9E 3C 2D FC E0 7B 1E
 2D 6C B4 35 D9 30 41 79 13 17 73 A7 7F 35 44 B9
 EF 41 60 7A 18 03 17 F2 C3 B3 92 F4 FE 8B 53 AE
 1A BD 78 F6 82 AF 81 86 4C 4A 24 3C F2 65 C3 5C
 70 2A 67 56 59 2B 2B D8 DB EF 93 FF 25 BB 05 B6
 1A 1F 05 52 1B 9B 71 27 32 28 6E E4 56 1C 56 F8
 E0 7A F1 F9 DC 2E 84 5F DD F1 9F 36 8F CA E2 52
 A4 34 26 E4 C0 52 AC C9 B5 51 96 3D 8F F5 AE AC
 63 A1 E5 D3 3D FD CE 55 B2 7A 5A 0F A8 92 E6 53
 49 27 4A 50 C5 F0 EA D5 B6 27 07 7F 03 01 1A AD
 E5 74 56 54 2D 4B 7A 5F B2 9B D3 4E DE 0F C0 28
 DC C1 11 2C EF E5 3B 8F F0 EA 85 98 27 2B 79 D5
 32 D9 E6 24 03 7F 94 BF BF 4E 6D A8 BD F1 86 D7
 66 0C 5D 96 57 EF 09 C0 99 8E 25 D0 65 37 DD 9F
 B2 4B DE E6 3A 91 41 74 9F E3 85 C8 9A 7D 6A 4E
 2E 51 21 9C FD 7A F3 BE 2E 21 B9 DB 72 4F E8 63
 8C FA 5A A4 FF 5E E8 D4 25 B2 75 FF FD 9E C5 FD
 B6 49 19 00 53 93 64 2C 1A 50 F0 3A 37 2C F9 97
 42 F1 EB 95 65 22 DC B1 4A 06 AC 0B 93 7B FC FA
 00 40 08 94 6B 13 9B DF BC 4A E7 E4 D3 C2 80 61
 E0 1C EB CC 8D 04 A6 A7 FC AC 6F F5 06 3B F7 D3
 B3 41 90 CC 71 9A 1D 87 5E 90 5D FF 6C 9E D3 0B
 F5 4C A5 F6 0E 3D 79 29 05 8F 72 E1 EB 6D 38 15
 C9 D5 7D F6 76 E6 41 95 E4 30 23 ED C8 1B 0D 8C
 0C 95 AE C9 60 DF 38 9E 8C DF 9A D0 86 A9 D8 3D
 7D 89 D7 5C 07 1B 65 34 44 15 22 85 8D 8B 74 9A
 C7 2F 63 39 C1 E5 46 FF 91 CD 72 D8 E6 EF 5B FE
 56 9C 98 67 84 24 13 67 B5 A9 8A 27 C5 2F 0A C9
 6B CD 3B 6F 9A 98 55 69 FC 6E 96 A0 A1 46 24 A3
 B9 D1 27 9B BD C0 17 1B A9 CE EB 54 CD 9C 75 4D
 A0 3A AF E0 E5 83 B3 E4 AF D6 3B 10 0B A7 B0 6D
 D9 A2 DC 39 19 6C F2 3F 09 1F DF 99 5F 99 0A 49
 54 87 2A 71 46 7D 6E B5 0E F5 DD 2D A9 51 45 10
 1C 6E D9 CF 09 FD 5F 3B AF 5D 36 E6 6F 2D E0 70
 D9 34 0E 7A 92 79 82 F2 03 C8 3E CE 9A 34 18 FB
 3A 6D 96 CC 59 06 1F 07 06 89 61 28 16 23 AB 1D
 1D C2 8E 41 FF EE 12 CE B3 FC D7 A9 E8 7B 50 E2
 D1 5C CA 47 DD E2 3A 67 FA 9A 4D 54 69 E7 59 2B
 F3 5C 21 F4 90 80 68 47 E1 5E 08 0B 34 D2 D8 6D
 53 5F 4C 7B 4D A4 25 F3 45 1B 18 DE C0 87 41 CD
 BC B0 D0 01 50 20 F1 D2 02 F4 4C 0B ED 8A 9C A0
 5D D7 90 66 F7 F7 0A 74 A0 AB F1 A3 F5 88 71 DC
 E0 E2 8E D2 34 59 B1 CC 8C 53 B5 30 D3 49 5E E5
 21 4A 42 10 DF 11 60 00 33 2A E9 1F 82 9F 0C 20
 C6 B2 1E 9E 4B EB D7 87 C2 1C 1C 24 B1 18 71 AD
 DA 82 99 1A FA 40 C3 F2 D9 6B E8 F7 1A 71 8E 4C
 EF 91 42 56 7B F5 B9 94 EA 04 3B 54 89 5A CF F4
 95 50 6C 7A F8 33 66 67 86 8C 01 DE 6F FE F8 1D
 E7 24 55 58 6B 8A 56 55 FF 0D 10 3B AE D7 AC 50
 76 0C 89 DF DA 4F 62 DB 3D EC BB 26 E1 97 4A D4
 9C 1E 99 C8 25 6A C8 EC C1 2C D6 04 CC CC 47 95
 36 57 14 78 93 AF 9A F7 33 5A 25 D6 00 3A 5D CF
 4E 8C 1D BF 15 49 39 AA BF 50 86 10 D6 BB 52 C4
 A5 D3 FD 20 43 EB 6E C4 F9 83 9F 54 05 89 D4 C5
 D6 23 49 BE DC A0 6F 09 72 52 DA B0 6D B1 17 55
 DA EF F9 0C 14 0D CA 58 5D EC 9F B0 C2 83 A7 1C
 D2 35 53 D8 84 7C 16 27 36 59 D5 28 40 F0 0F 48
 6A 20 4A 32 1F D4 9C B3 AE A0 F2 65 3F 7B 70 43
 3B 90 E6 A9 95 06 0C 46 6D F0 22 25 17 EA 72 77
 E7 99 40 6A 1C B7 D5 7A 84 DE C6 BE 73 AF 59 71
 4A B7 1C 26 57 A0 08 40 56 52 9D 34 69 8B DF 26
 90 18 EC 06 E3 EC ED AF CB E5 F9 66 67 B9 CE F2
 31 79 42 0C C0 85 27 B8 3D D7 B3 EA 84 6D BE 4F
 A3 11 EE 5A 65 0D DD 39 99 D4 C0 0F 6B 6C FC A0
 99 72 03 AD 4D 8D F9 8C 53 D4 72 E0 30 36 68 9E
 9A 15 FE A6 38 9B 83 9D 1C B3 88 AC F7 87 09 56
 05 60 BE D7 64 00 4A 49 60 96 0B ED BE 2D BC 4E
 89 C0 D3 EE 81 5B F9 21 67 A4 A9 55 E5 3D 19 5B
 C0 9F 15 B9 72 74 5F BB E4 A4 DF FA FC 93 3C 01
 37 11 37 09 BA 7C 9B 56 4A A8 9C BC 2D D4 15 DE
 49 87 45 AC FA 6B 2E 9F B2 7B BD A1 11 87 28 CF
 6A 60 F1 55 FC 51 AC 27 75 71 6B 71 7F 5B A4 9D
 47 A5 41 5C 2E D5 C0 C9 21 57 46 72 8A A9 1D EE
 F8 7E 64 FB 88 CC BE BB FC E6 C1 BD 08 85 8E 5B
 3A B0 4A B0 89 BD 22 11 C9 06 A5 90 62 D4 6E 81
 F9 AD D5 E6 47 61 EE 6F 7C B3 5C A7 0B 26 4A C8
 63 60 6A 12 FA 2E 2D D1 72 30 40 E2 98 9D 20 18
 CE 44 85 57 7D 5B EA 1B 96 5B 4A 8B 4E 69 42 07
 87 5B 4A 7F F6 E3 2F 78 EB 32 97 3B 6E 35 DB 34
 AD 35 84 68 37 49 89 80 B7 9F 12 F8 BA 41 BC 1E
 71 21 A9 01 E3 D1 15 0C C1 5D 54 83 69 8F CA F8
 E4 68 4C F8 CD B9 D1 65 5F 7A 68 AD 62 44 B6 94
 3D E4 B0 BE 1E A2 91 9B 16 D7 73 9E B2 79 E0 7D
 44 3B C9 57 86 C4 76 4D E8 04 01 CD E7 E5 90 BD
 36 C1 17 2E 8E EC 29 95 8C 52 35 9D EE 83 A7 72
 FB 7E 4A 47 34 23 49 07 63 9A 84 7D 21 2C 95 0B
 8B BB 52 A5 EF 38 A3 00 6A E5 EF F7 BB 3A 28 12
 9B 95 55 79 8B 90 8E B1 19 E6 EF 23 0D 24 F7 98
 89 4E 7A BC 21 09 29 E9 82 20 4F 0B 9F 97 50 11
 E0 CD 4A 8B 8C 88 38 D5 6F AF 2A 4D 03 A2 8F 06
 1A 2A 02 9A 64 00 15 CD 8B 29 26 55 33 E3 19 15
 54 07 DF 3D 2F C0 87 26 E5 C7 F4 80 8A 9C 4D 2A
 65 60 91 84 39 39 DB FB 44 B2 B5 C5 B7 95 0F 42
 60 16 C0 1A BB 49 74 87 96 12 83 04 46 53 E3 7A
 1F 48 5D 6D EA CE CE 4B C7 AE D4 B5 E7 F9 13 A4
 5D 0E E1 0A 30 4A E0 B3 C7 7D 32 C1 72 47 55 54
 EA 5E 7F CF 69 4D 6D 35 7C DC FD 25 07 DC 37 78
 0A 52 6E 68 D8 34 60 D6 18 84 AA 9D 52 F2 09 37
 14 EF 1C 20 58 E7 98 5A 96 3A B1 7D E1 2C 17 AC
 FF 86 15 62 DD C9 AD 9B 5B C8 C3 47 69 BE 4D 06
 D6 AA 50 C9 49 A9 6C 41 4D EE D0 1B 97 C3 86 03
 AD AD E1 5A 8D 97 59 24 E8 E9 6D E5 AE E8 09 91
 E4 C0 AE 85 8C A8 12 4D 72 04 D8 52 D8 D7 50 80
 97 65 D5 DE 45 09 0B 89 60 71 C1 16 FE 43 BB 0D
 41 EF 6D DE D9 8D F4 BB CF 9E 98 22 5C 1E 29 83
 32 1B B6 52 77 ED F5 01 A5 E9 2D 5A EA A1 C0 6B
 02 57 18 81 CD 3C E2 0B 30 5B 8A 87 B0 70 99 4F
 D1 12 F0 F7 A5 C0 D8 C1 7D EC F0 6B 6D C5 B4 7F
 87 31 B2 2D 73 99 D2 35 22 9E E7 98 8D EE B3 45
 66 37 E7 80 E5 96 6B 90 25 E8 16 15 2C BA EA 10
 DF 80 40 6E C0 CA DB 7B 20 4A 9F 79 3E 50 54 2E
 7C 6B A4 F4 3C 03 54 3B AC FB 2A D5 D3 64 28 DC
 04 BB E6 D2 9A B5 B1 59 12 5A A9 E5 5A 1B A7 BA
 23 4D 42 17 87 1A AC 18 78 EA 2C 77 92 2B 4F CD
 4E 93 32 DE 00 78 7F EF AC 09 A8 76 F7 62 24 E3
 2B 12 7F 8F 75 C1 82 0E 4B 0B 6B 48 40 B0 84 01
 BD 86 66 29 20 A5 2B A9 AF 65 8E 79 C0 B6 0D A6
 AA B8 B9 EA 76 78 41 49 88 68 1F 08 16 85 26 55
 AD 92 2D 83 DD 90 A7 27 6D F3 F4 07 B8 C9 5B 62
 1B 15 0C 06 F2 92 85 38 00 2B 18 E9 F4 A4 E9 4F
 74 15 D6 D7 4C BE 8C 08 7E FB 46 02 04 CD 81 7B
 93 D0 7D F3 8A 51 C9 0E 48 0B C3 96 35 6E EF 7B
 47 D5 14 08 A4 0C EC 1F B7 AD 1F 48 0A FE 11 4F
 E1 00 82 9B 84 07 BA 6D 9A 36 9A 1E 89 32 F5 C0
 5E 46 37 3E 8A 64 42 2B AE 3F E9 7B F4 F5 14 9F
 81 35 22 06 35 EE 36 2B D3 80 64 18 AB 32 2B A4
 87 BD FA BB 55 E6 69 14 4F 7F D4 91 17 09 2E 3A
 89 2A DA EB 82 7B DC CC 36 E8 39 2E 3E AB C2 D6
 C7 2F 6D C9 20 2F 78 26 D3 46 E7 A2 AB 45 84 78
 A0 55 4E 6F CB E3 5D A0 82 78 52 C4 27 EE 16 A0
 1A A5 18 9E 2C E6 78 62 34 FE C1 84 18 CF 26 FA
 7B 3F 81 1B 83 7A 38 68 61 1E 30 3F 60 05 AA 7A
 6C 62 02 08 01 A6 11 33 85 19 35 D7 5C CF 8E 0A
 69 F9 38 4B 25 A1 7B 05 06 AB 5D 2F BC A1 DC 9C
 94 90 45 83 53 94 CC 69 AF C9 3F 1E 4C E3 3B 04
 B6 EE AC E4 EC 95 26 04 4F EC 0D 25 11 22 C3 DD
 C2 21 6D 46 14 85 EE CC D6 FE CE EA 66 1B 27 F4
 D1 15 35 71 09 D5 33 9C 8F 14 39 EE 59 00 4F D4
 3F 7C 30 55 BA 0E 15 E9 08 D8 8E 1D CF D6 36 22
 72 8B 6E C4 74 CD 64 05 CD 4B 60 41 27 8E 57 F6
 D1 4F 0F DF A4 A4 EC 99 77 50 2D C8 1D 8B 77 7B
 FD C6 76 42 46 92 41 2C E4 88 58 54 92 01 5D 69
 C8 D9 90 49 93 01 C7 02 DC 3C 00 9B AA B5 9A 0E
 71 90 77 5F 40 80 48 F7 04 28 55 6A FF 3B 3F 47
 DB 40 D8 13 49 6E E5 C2 2D A8 38 4E AA 2F 15 DF
 4D 51 C1 44 EB B3 B4 66 69 B7 A0 25 DA 33 FB 91
 CE 97 B8 62 2D 59 5C CE 34 4E B3 D1 59 41 11 F3
 B5 5B 49 2F 96 AB 3E AD 9D 5D D6 5C AD 61 4E 39
 5F 69 9A BF D0 45 C0 0B C7 D1 F4 43 07 CD E3 47
 B0 CA 3F D8 D1 81 A5 92 17 9F B8 99 CF B3 FF DC
 0D B9 B1 1D 17 52 05 C2 8B 14 19 65 69 8D DB 76
 6B A1 F5 5E 47 EB 0B C5 14 DF 6A BF 6F 1F 41 65
 EA 4C 5D AD 8E B2 93 7A 70 ED 44 C4 9F AF 2C 18
 3E 39 AA 8E E9 02 65 CC 4B BA 4A DD 78 BF 30 E7
 18 35 34 09 07 1B 77 38 B3 1C 85 47 3E 7B 0E A5
 AC B4 14 7E 7D 85 34 D1 BA B4 48 5F C9 0E CD 7C
 F7 3A D4 B1 1F 90 AB 9B B8 50 EB 9B BE 4D C7 CE
 79 59 9A 1F 59 0D CB E7 79 DF F7 AC 4F E9 4E 50
 15 1F 5F 20 B4 20 66 54 8F 70 FA 72 C5 A6 91 60
 91 AA 63 92 14 71 2F 73 A7 1F 55 B3 07 79 C4 F9
 8B 85 8E EF D1 FF 60 D4 89 9F 1A 2A EC 53 BB 0E
 2A 38 A5 97 5C CE 87 9A CE 02 A8 8F C4 75 53 72
 E0 D2 53 85 48 7C 1D 2A DA 9F 68 04 4C 27 65 ED
 D4 D5 60 68 DF CB 9E 96 B3 81 4E 16 B3 77 6A B7
 FD 09 0F CD DB 80 D3 EB C3 3C 65 71 CF 50 DB AD
 D2 05 0B B0 1D 4C 2C 4C 43 B4 BA 22 6E 99 07 9A
 79 80 D8 1A 09 C7 D3 BD 66 A8 D3 2D 04 86 4A AB
 C1 38 D4 59 AF FB 40 8D 2E 73 C9 4A F1 B5 9F C6
 F0 D9 59 2A D7 66 46 79 45 7B 4B 6F 66 92 CF 24
 00 A9 50 D5 02 4C D8 AE 97 6A 45 2D 3E 93 4D CE
 02 CB 08 CC F7 8B 1D DD 28 D1 DA 98 D4 1C 28 FE
 E3 85 3C 53 02 9E 45 14 B0 0C 83 A7 C2 59 31 42
 A2 5C 4A 82 8B 00 0C 6E 92 B7 97 00 7B C0 DA 2B
 DE 6F EB 42 DE 0F EB 4B B0 BB 3F F4 1A 90 04 31
 2B 9D C4 76 16 AD DB 80 E7 E8 9D 61 8E B4 1B D6
 51 9C 27 9B 51 04 27 B1 62 C0 FA 51 F6 52 00 A2
 55 C1 E2 B8 6E 20 F2 19 10 99 66 DB EC 28 EB 50
 E4 B6 86 EE 52 87 EF 24 4B 32 6B 4D 0F 2A 86 92
 F3 22 5B 4A 9C F5 0C 5F DF C9 60 49 80 1F DF EB
 48 C7 F6 85 11 6D 01 A4 EA 02 E3 6F 6D E9 B5 96
 64 43 0F B4 9D 89 FC BD 0C 9B 41 E2 54 D9 AC 80
 3C FB 87 93 FD 3F A0 B1 01 14 62 4E 8B 96 BF BA
 90 B5 35 AA D2 CD 5B C8 60 8A D6 94 8F 17 D5 9A
 2D F3 7A 84 BD B0 01 C8 F1 55 DA 1B E6 56 9C 95
 E9 12 D1 F1 B2 9D 3B 5F D6 A6 A3 C2 A6 D8 1F 31
 38 5F 3C 47 45 99 9D 1F 52 BC 67 FF A3 92 C1 A9
 70 2B 36 80 AD 6E 38 10 D8 34 3C A8 4F 76 2C 5D
 A7 B1 C4 F9 85 A9 0E B8 95 F8 EB 93 AD CC 84 12
 9F BC 4F 12 38 57 35 53 D4 E7 E3 38 54 BE 8C 8E
 02 A4 E2 0F 5E E4 98 3D 77 30 50 E2 00 7A B7 56
 6E 89 29 B4 F1 93 2B 9E A4 75 63 62 62 B5 D6 6D
 41 F6 44 FD F1 15 53 BD 0B 75 28 EF CE 18 CA 6C
 4A A0 F4 1B 84 36 7D 8D 9B 87 03 97 10 CA 85 D7
 7F D5 03 83 C4 86 62 DD 84 8F 2A 50 84 88 13 1B
 DC 79 15 29 76 5F 54 FB A3 1B B3 8E BC 4F D6 BA
 3F C4 30 D2 5F D3 A3 8F D1 9F 04 00 09 BF 19 20
 66 54 54 F7 9E E4 F9 43 A6 2E 8E 88 51 80 F5 95
 5F E3 91 29 95 6F 88 82 7C CC A6 7B 18 F1 8D 7C
 CF 2B A2 47 38 02 43 63 EC 13 CB DD 64 8B 40 2D
 67 7C 7A B3 FE 64 76 9B 11 7F BC 75 A1 F3 C0 CB
 FF 5B 0B 02 BF 53 B8 65 7C 9E F2 A6 3F D2 A7 96
 B0 1A 0D F9 65 B8 86 3D DF E2 B3 54 DB C7 2A 60
 6D 86 C2 F5 FE 2B 50 03 AD F4 52 8E A6 44 9F C3
 99 21 3E D2 4F 6A A9 67 B4 2B 61 E6 72 CC 52 67
 0D 4C A4 91 16 47 8A EF 16 DE 57 93 E1 2B BA FF
 8C 71 6F 8E 94 16 04 F1 C9 98 4A B4 20 E7 78 29
 A7 10 20 A2 C8 CD 27 D9 7B 91 C8 C2 1D 99 5C 82
 F7 D1 BC 63 ED 75 79 94 95 12 76 5F B0 FD 39 99
 3E 88 BB 9E 15 E2 0E E1 80 EC 2C 17 C9 22 A7 26
 08 5B 27 DB 5F 9B F5 21 5D CF E1 80 8E 2E 75 AF
 DC D7 8A 5F 98 88 EB 83 D9 FA 33 26 85 6F 52 D5
 0E DF 28 E7 4F 62 B9 B2 E6 11 73 BE 52 02 F4 56
 A4 39 9F 2A A3 CB A4 49 9F 90 DE AF 2A A5 A6 6E
 70 4E D3 79 23 57 15 5D AA CF EC 9D FC 27 0C D8
 F5 AF B7 B2 52 C6 98 50 FB 97 EC D6 1E F9 F4 2D
 30 57 0C DB A8 C6 E6 83 EE 15 CC 83 0E D2 ED EC
 F0 EB 9D 1E FA DC C3 9E 73 68 F6 95 63 9B DC 1C
 33 80 68 41 1A AA FA C5 38 98 DC B7 F1 D0 A7 20
 49 01 22 C1 86 00 6A DF 77 AF 76 06 52 6D A7 B6
 52 19 E1 38 73 6D 62 A9 E9 D1 37 9B 78 7C 55 73
 8F B7 19 98 D0 FD 75 55 13 4E DC EC 7D 5D 9B D6
 56 E6 5D 08 7B 39 74 6D 33 E7 80 84 A3 81 C1 9A
 1C 47 9B 87 F2 1A 66 F0 7B B6 B2 A0 B4 D2 28 A6
 B2 F5 94 07 4A 56 25 7E EF 1A DB 25 BE B2 40 F8
 74 9D 4A 76 96 61 9A 33 63 93 6B B2 A6 04 E1 86
 37 22 DC E8 F0 AF 89 C8 A5 0E FC 14 B4 6A B6 6F
 BF 61 AF 91 38 99 13 BB E0 2D 9C DD D3 54 02 19
 8E 6D 10 46 7E 25 04 04 05 4E 00 16 06 8C 6D 52
 38 B4 A9 69 DB F6 BE C6 BE 31 13 EA 91 29 9F A3
 9D BB F6 37 C4 19 1A DD 31 8D A1 05 9F 77 69 10
 88 0A BC BF 1B A7 C0 9A AD BA 7F 86 E4 53 F1 CC
 0A D6 93 64 94 86 41 60 77 68 E3 34 E6 3D F5 AE
 69 64 B6 D5 A6 60 F2 4E CD 55 94 A2 96 DF 75 3B
 BA E3 36 A5 45 05 60 21 C1 7E 7C D8 06 0E EE 3A
 DC 25 ED 19 0F 2F 99 F2 50 59 CA 36 3C 32 A5 87
 00 FA A1 18 CD 6E 7E 46 7B A0 9B A3 50 36 95 DF
 2D B1 72 BA 32 84 9E 99 5A F9 51 CC 76 9F 7D 31
 50 5F 8C B2 78 71 F4 9E 56 53 8E 8C EA 6E 3F 10
 A7 F1 40 42 70 F4 86 28 8F DC BC 58 2D 75 50 D2
 AD 80 93 EF 75 3B 5F 53 D1 5E 29 12 67 8E D0 92
 54 2D 9D 24 60 1E BB C9 E9 CE 3E A2 CB 6E 02 28
 01 64 02 62 B9 FB EB B3 F2 DD BD DC 14 9F 08 89
 A9 16 EB E4 AC 8E 13 C6 29 05 0F 87 A6 F1 33 A2
 E4 9D 5A BF 69 3A ED 01 C8 05 6C A3 44 C1 1D 9C
 CB A9 1A 80 E1 2D 5C F1 0A 4D 2A 59 45 CD 39 0B
 08 A2 3A C6 C1 46 C1 1E FC CD 08 26 B1 B1 5D B2
 BF 08 30 2E C7 23 E5 73 B5 CA AD A0 4C B6 17 1B
 90 47 E0 FA C7 B7 78 2D 05 2C 61 E5 5F A2 BF 76
 EC 83 29 41 C5 82 BF ED 3A 1C 20 A0 72 82 55 0D
 97 14 F3 C1 09 DF 83 75 1B 91 30 AD 7C BB 0B 19
 43 D8 9D 3B 89 69 8F A8 5E A4 56 5A AB 76 51 62
 FE C6 4B C2 B8 32 D9 59 43 68 F5 96 18 E7 DD C9
 E5 D8 DB C4 4A 73 B7 DD 32 96 1E EC F0 1F 4D F4
 9E F8 62 F1 FE 4E 68 51 24 CA 9C 9B 28 4B EA F7
 F8 C9 BB 6C 85 40 DD 07 59 EF A2 6C 3A 21 51 59
 00 4C 79 C0 25 DA E6 8C 6E 8D 3A 58 29 23 01 D5
 E5 57 4B CF B4 C7 61 08 EB C1 FF 8F 07 41 1F 06
 55 A2 EA 6B 5C AF C6 9A DA 9A E3 0E 9E 80 60 01
 F6 1F 3C EF C7 21 2B DA 57 CD 62 E7 59 C0 AF EC
 BB 90 9B B6 3F AA 38 36 B2 33 02 CA 65 10 2E F2
 A7 E9 30 A5 C3 84 2A C7 E9 4A 34 66 59 BB 5A C4
 98 7C 8A F9 15 FB A0 B0 DC 4D BC 98 17 2F E7 B0
 27 2C CF 3D 50 45 CA D7 5E 6A 92 97 9A B9 F7 7F
 27 31 81 AD 94 7A BD 7E 29 11 BF 50 DC D6 41 0D
 3F 64 28 2B AC 12 AE 15 AC B2 06 F6 BB E3 BD 42
 0E 66 68 7E DD 17 84 54 5A 60 18 35 A5 18 39 D1
 E1 B5 AB 12 0B D2 02 E6 D6 FC B1 29 16 6F B5 95
 77 E7 63 9A EF 04 16 A8 3C 45 97 10 74 89 1D 65
 D2 EA 0B 5F F8 5E 39 E6 39 E9 13 8F 26 10 EE 97
 35 D4 0E 63 F8 2F 0D D9 B4 36 23 BF 26 85 99 37
 55 22 60 2C B4 E1 0C B9 58 DE 26 E5 92 CB DA F5
 67 D2 2A F6 F1 23 22 1D 5A 9C F4 0D 1B 49 3F 5B
 4B 22 A4 8C 0D 34 11 08 96 04 AA E2 45 32 72 0D
 34 2E E0 64 AD 94 ED E6 E9 8D 87 E2 B4 9F 6C 6F
 F0 51 01 81 E6 57 47 9B 3A 1F 70 5C 76 C5 A2 E7
 3F B5 86 A2 DA A3 BD 5B 6B A2 CA 50 4A CC FC 9E
 18 60 63 1E 08 96 4B 1C 86 B2 9B 7A 56 00 78 58
 E9 FD 71 F9 E1 16 58 3E 77 A5 BA 32 4B CA 1A 58
 02 67 96 8F 8B 47 51 0E DD 71 D6 D8 4C 4F 2C F5
 7F 3C 60 46 AD 1C D9 B5 54 CF BA 52 FE 25 B9 B5
 F2 F6 E9 4F 17 1E 77 89 95 44 36 7A 3F 04 23 51
 43 2B E8 0F C7 BF AC D4 2F 50 22 F7 42 9F D0 14
 5C BD 24 3F F7 14 CA 18 5A 1C 1D AC 90 79 6C BA
 05 31 B0 B9 B2 78 D1 E8 C0 53 F8 BF 10 4E 8A D4
 18 80 18 7B A8 55 4E 1A 28 63 28 4F E3 E4 4C B4
 62 D9 3A 0A A8 3A 6E D8 B4 AF 54 D0 FF 54 31 47
 53 03 FA A3 0F 47 C3 65 FA BE C7 B1 00 26 AB 9C
 D6 E2 13 BE A1 45 89 01 B6 1B 40 24 CD 71 6A 62
 57 DC DD 70 D3 BA 56 82 E8 A4 0F 7E 75 19 6E 4D
 BA DE 5F 91 6C 89 10 4C 94 D6 09 8D E9 E0 E5 5C
 87 D1 43 80 4C 1D 64 7F 24 35 9D 90 27 70 28 98
 06 39 40 EC 05 3E B0 76 3B 8F B5 B6 6C 76 4B 46
 D1 0D 14 C3 F3 55 5B 09 2A 45 42 E1 76 F0 AC 20
 9E 6B CD A2 6B 44 46 87 3E 61 7F 1B 9A 33 11 20
 BA F9 19 0D 01 66 D0 1C B2 42 82 53 59 A6 A9 68
 80 2B 2E 9C 28 1C 5D 7B E3 26 37 DB 0E 42 85 44
 C5 15 79 DD 16 D9 A0 9C D3 B6 DE 2C E7 EB 54 26
 7C BD 29 3B 73 85 38 9D A7 A0 19 26 FE DF 54 AA
 30 6C 95 84 6A 08 92 5F A9 54 92 29 01 FE D7 38
 8A 4C 82 0D 28 E1 75 91 7B 18 04 8E AE A7 DD 29
 7D 30 B7 16 A0 A4 0E EE B5 05 B1 88 5A 36 E0 C5
 CE 2E 78 B1 50 4F D0 EC 42 48 2B DB 16 A7 55 3B
 98 41 AE 1D 34 42 B7 E8 63 9C 8A F9 E0 76 11 27
 9F D5 CE E6 CA C6 4E 64 D3 AE 55 94 6F 33 04 27
 A2 D9 F2 0B 9F C2 DE 91 E6 6B 95 76 83 C7 BF FB
 4B 7D E7 AB BB D0 44 BE 4F 04 0A 5D 87 B1 62 BA
 61 44 C4 8C F8 AF 08 FE DF 1A E0 18 42 CE 73 5A
 B7 8A BA D2 31 8A 05 04 D9 16 61 AF 14 95 4D 94
 50 BD 82 41 1D BB 4D 40 FA 24 B9 3B AF F9 03 4C
 DE C9 38 E5 68 D6 BB 90 0E AD 0C 57 D0 79 10 39
 66 D0 C0 59 94 77 3A BD 0D EE F7 DF 6F 5E C9 D8
 A8 69 A2 DD 25 E9 C4 22 DC 44 0F 86 D7 45 35 8D
 78 03 AE 6C 40 44 A2 76 14 30 AF C2 7A CE 12 7B
 41 16 B3 2C 0D 67 70 7B 6C 18 49 32 55 92 F9 90
 3D C4 E8 75 A8 19 EA 79 5F 20 3A 1D 2A AF D1 BB
 F0 64 FB 9A 63 B2 39 AA BE BD 8B 22 C6 FB D3 D2
 68 E5 D8 7B 0A 73 DD 71 22 6A 9E 8A 86 4A 28 94
 C8 A1 84 CB D0 53 47 78 93 6D 39 CF 66 3E 15 97
 A2 4A 57 08 11 02 8F 20 46 2A 47 3D 59 06 54 3B
 27 DB D3 5D C6 26 66 36 94 2F AE 5A FE C2 E2 6D
 D9 71 77 84 15 61 7D FE E2 CC AA 6A 44 6C 9B D1
 09 9F 34 06 00 B4 F2 AF B2 29 26 91 78 B3 C7 BA
 6A 66 40 AA 19 8D 82 3C 3E 87 B4 86 9E 9E CE 41
 2E 90 7A B2 87 F8 7F 45 D1 27 9E 11 60 0B 28 08
 A9 DA 04 0E 4C 77 13 62 BC 5C A4 3E 69 5F 73 0E
 C5 DB 92 11 EF 0C 55 0D F5 1D 42 C0 6F BC 9F CD
 00 47 33 0C E7 34 39 E1 12 24 51 33 C3 D1 69 6C
 20 79 BC 19 02 03 D5 A0 29 6B 67 00 F6 07 7A 2C
 89 28 50 75 29 69 9E CE 20 1D DA 1E 4D B2 5D EA
 DA 35 0D 13 1E 02 6F A9 46 94 93 F9 9E 85 D4 30
 DE AE BE 7D B5 94 58 4E 76 24 E8 3E 38 98 D5 01
 31 34 EA 24 80 EB 61 3D 5C B7 DC 7B 1D D7 69 93
 FC 3E 97 78 55 E9 61 BB AA 56 6C 1A 88 C9 8E 6C
 BC A2 BD F0 CF BF E4 45 3C F5 34 B0 38 32 44 1E
 89 F8 74 92 2C BF 9A D3 EA F0 84 12 82 9C 1D A1
 08 60 0E 29 F0 D2 BC 63 6C 2F 79 CF A8 71 63 AF
 37 6A 6F 18 8E 7A B0 CF 59 AC 7D 45 16 61 6A 83
 0E 69 D5 AB 45 B0 03 70 94 54 5E C0 67 38 5C 19
 55 6E 91 8B E6 98 A0 01 6B AC 80 F5 C5 E7 1C 69
 81 7D F7 41 1B 51 DD 54 EA 98 83 59 1E 9E 08 83
 D8 66 EE 47 5A 93 B1 E1 58 60 4C 77 D6 42 91 63
 F0 EF 60 3F 50 61 C5 D6 B4 6C 87 21 46 83 B9 0F
 59 AA 72 91 5E B1 AF 29 36 D5 01 A1 8E 5E 75 70
 AC A3 DC 38 8C 6A 3E DE FB 2F DA D4 D3 72 98 A1
 AC 31 8A 98 1E B0 89 52 79 CB 55 C6 BF C8 8B 69
 8F 24 0A 74 8F 91 A7 E8 C3 61 3D 13 B6 32 60 BA
 3A 58 B9 12 5D D6 37 26 FD 25 CC 49 BE A2 0D A9
 74 65 D8 94 F4 CF 1A 80 DC 49 41 89 72 48 89 2D
 1F F0 AE 3D AA 4A 80 7D 36 78 C9 F9 82 2C 27 FF
 E3 FC 29 3E 42 23 E2 DD 91 EF 0F 62 47 B4 D7 D8
 A1 C1 49 81 35 01 1B D7 B3 5D 89 32 6B 69 B5 97
* End 40836756 429431606