* LTspice Encrypted File
* 
* This encrypted file has been supplied by a 3rd
* party vendor that does not wish to publicize
* the technology used to implement this library.
* 
* Permission is granted to use this file for
* simulations but not to reverse engineer its
* contents.
* 
* Begin:
 C3 47 CA 6E C1 84 5A 1B 24 EB 43 5E CD 0D 2B 4F
 CC D7 9C F2 D2 F9 A5 9F D2 D7 10 97 AE D6 31 1B
 F8 75 5C ED 35 B2 53 DE 23 CE A5 F3 7D 8F FD 2C
 7F 64 1E 25 5B B6 3E 2E E8 E6 6B E4 4B 87 B3 AB
 F0 17 42 2B 96 58 45 E7 FF 35 26 9F 4A C7 19 F3
 F0 0B 9C 5B E9 82 BC 85 5F E3 10 88 64 2E 76 8A
 CA FA 2D 7F 2D D4 E3 22 68 66 FD 4C C0 71 C2 B2
 84 5E 0A 99 EE D8 82 38 C4 8C 9F FB 9E F0 2B 5B
 C4 6F EF 6D 6A 5F A3 33 AD 39 21 F8 1E 5A BA 9C
 B2 88 6F 83 99 25 D3 C1 64 C3 2A 03 79 39 00 A6
 59 57 F0 BF CB BD 01 0A 05 6C 8D 9C 99 10 25 D0
 E8 83 0F 46 3E 3E E4 79 3C 95 2D 82 B2 AB F9 37
 8A ED EC 57 BF D4 03 4E 6C B1 C3 C7 CA BA 9A 2E
 80 78 95 83 46 9E 61 00 14 43 12 DF 1E 79 4C 47
 5D 7F E8 5A DA 0C 41 C8 BF DC 3D 0E 27 98 A6 0C
 3A BC EB ED 74 FA FC C1 10 0B 8D A0 1D 04 17 98
 99 28 D6 EC B7 3D 04 36 FA 2A F2 12 0F 60 A5 98
 5A 11 0A 14 4C 00 2C 7D 8E 07 26 49 79 54 3A E8
 1F 2F 10 3D 9A C4 2D D8 8A E8 CF A0 88 A2 DE 28
 E5 00 AD 44 D8 C7 67 07 03 8C 50 51 37 4A 4D 23
 5B 75 19 3D 09 A3 18 B3 75 1D F8 2D F3 8D AD B2
 D0 3F 13 21 50 C5 46 1F 24 F8 E2 E9 BD 35 B8 56
 B7 AF 4D 32 5C DF 0C 84 1B B1 9E 20 C2 77 2C F6
 CB 29 4E F3 C7 66 23 07 55 5D 72 1D 18 B2 C9 BC
 B2 3B 34 22 F1 AA E1 1C 8B E4 ED 0B EC 38 44 8C
 75 76 39 1A 2B 2C DB 28 E1 F1 BA 54 00 45 62 9A
 06 80 35 02 2F 5A B1 F2 F9 9E FA 7E 57 EC 6A 25
 71 74 7B 83 D1 EE 55 03 FE 55 D4 7E E2 43 88 F4
 6F 3F 6F 5A 54 64 3D E5 4C 58 3C 6C AD 7A B7 16
 59 B1 F1 83 1D FF 1E 7A C4 57 98 72 8C 84 98 6C
 F5 92 3C 44 8B 67 AE 90 DD 16 92 86 87 3C E2 B6
 07 01 8D 51 9E A3 E8 D2 80 9C EA 85 AB 74 DA 39
 01 09 20 A7 6B C5 E4 8C 84 D8 53 7B D0 10 4F 50
 AD 12 CF 08 78 DD 3F B9 6D D4 9B F6 6A 11 31 22
 70 B3 85 BE 8F EB D1 F0 C6 64 F1 28 7C FE 3F 19
 FD F6 0C FF 05 5E 36 CD 21 83 39 2B D9 A3 CC 8C
 E5 0E 23 68 06 AB A9 83 31 6C B4 41 CD 16 80 EA
 D6 79 71 10 B5 1A 4E 09 3A 97 60 94 2B 20 6B 4F
 1C E0 99 EB E4 0B 7F D1 6F 2C 66 C1 F4 31 2B 1C
 FB F6 58 5F 93 B5 9C 5B 60 90 D2 76 EA C4 F8 DD
 D1 81 D5 9E 86 C0 45 B1 D6 B9 3C 22 EF E9 05 AA
 6C 27 B4 90 EB 19 4D C6 C5 39 EE 4F E3 2C 83 F5
 48 E4 94 FF 0B 2A A8 B3 6B 24 32 A6 F5 B7 1F B5
 49 75 0B 71 44 5A BB 9C B4 6D 07 FF 6B 97 5E BE
 F2 01 A1 20 DE BA 83 4D 22 A6 54 E5 2B 4E EE EA
 86 60 5E 8C A4 46 28 70 E2 EA 17 CC EC 4E 9F F7
 D4 77 13 8C 54 7A 16 F9 78 F0 DA 60 D7 46 44 07
 1C 09 7B 34 BD 2F 75 9A 4E C9 25 48 96 93 ED 9D
 46 B9 91 04 8D A7 DB 85 A8 FC 7C 19 D3 08 82 F2
 32 0B FE 89 C9 CA B6 6F 1E D9 E3 85 43 10 79 98
 EE A4 CC 31 76 D6 18 86 09 89 0B 0D A9 5E 3B 4A
 51 B3 4C FA 13 F7 4E BE 91 63 82 47 D7 DD BE 6C
 D0 41 AA 14 02 04 4F D2 10 A8 99 25 B3 D5 63 B1
 C4 82 F5 87 E9 95 6E 16 9D DA 07 37 B4 E8 7B CC
 28 00 1F CC FB FA AF 04 11 6B DD 51 36 D7 7A BF
 E9 E3 E9 A9 03 99 6F 41 BE CF EC E3 B4 44 BA BF
 6F C4 9F 0E 13 96 90 23 6F F0 8B 4C 6C D5 D8 6F
 80 15 6B E9 8E AD 49 60 13 20 58 C4 5F BD 9F C9
 45 2D 2E 4D CF 90 58 EB 89 4C 7C 41 C8 AF 3F 8A
 7C D6 A8 8B 17 42 64 30 36 B8 99 D0 B3 C6 D1 5A
 8B 91 60 03 51 CF 53 C3 FB 8D 79 DD 1F 55 DD 58
 B0 23 20 03 9C A5 0E AE 4F F0 4D 56 88 4D F8 CE
 A1 DD 95 C2 C4 2A 5A 6D 32 DA 29 32 AF 9A C6 DD
 56 74 88 18 BD E6 44 5F E2 70 87 80 AC 43 6D C1
 B3 63 94 B1 A1 6D 2D 3A 60 07 04 37 79 AD 02 F8
 12 DB 54 8B 95 49 4C EA BA 67 19 0D AE 6D 14 AE
 4E 56 29 E5 68 C0 62 11 29 20 B2 7B EF D8 6F 0F
 3D 3D 8F 57 FA 93 76 D7 40 70 98 3B 49 F1 D3 15
 2B 5F 61 62 0F D2 04 E4 ED 87 DB 00 BB 74 6E 5B
 63 6B E0 3E 1F 35 E1 65 6D 43 42 A5 10 B9 EF EF
 7E C3 50 99 94 4D EB 9F 89 CE 5C 06 7A 40 75 BC
 B1 6F CD DC 6C 22 C4 81 E1 0E 7B F1 05 26 94 EB
 61 61 15 37 38 C8 B1 F3 F3 90 34 C1 E7 37 56 07
 C2 6F 5E 35 E3 69 54 F9 79 25 2B D9 24 B6 FA EE
 FC 39 5D 17 D2 EC 6F B3 3D B2 53 11 E7 C2 BF E1
 C8 D1 00 7E B8 A7 CF A6 51 B7 45 EF 10 C6 0E 86
 4F 59 8A D2 97 DC E4 82 6D 0E 46 FA 94 AC 4F 75
 43 8A 21 B5 92 5E 83 97 26 67 3B 1F 21 DB 79 DE
 3D 84 90 A9 E9 E4 00 EB EE 70 B0 77 00 52 AA 5A
 4A CC CE 21 F7 EB D3 0C DA C1 DB ED B4 D1 47 5E
 47 1E 69 FE 58 77 58 D8 F3 68 63 89 10 4F 67 D0
 71 86 90 0A B3 0C 4D 8A 6F DD B3 21 8C 10 B8 71
 95 9B C8 9A AB 1B 16 2A 6B D9 5D 2B 2A 8A C5 B9
 01 84 95 7A 69 AA 40 53 4A 30 0F EE B7 CD 45 9E
 F9 FB C5 4C 79 04 32 BF 43 E5 4A 51 7E E2 BF 03
 B6 2A 0B 73 09 BB BA 0F 2B 91 34 15 44 59 F1 06
 37 4E 69 36 6F A5 7E 04 6D DC 4F 8A 5D 79 FF 57
 73 64 09 7B BA 8D 94 80 40 D5 71 2A C9 22 8A DC
 5F B1 A2 EC F2 33 6B EF 4A 64 38 08 F3 94 EC 6D
 6E 70 79 3E 0E 83 25 E4 C0 48 A0 55 25 0A 44 BC
 79 51 89 2C 2C DD F5 DE 99 CC FE 3E 80 BC 6D 46
 D5 07 3F BA 20 13 21 54 39 D7 3F 2E F4 E2 6B 4E
 CF 42 4B 79 47 4E DD AD 4A 81 5B 58 45 92 5B 43
 53 48 99 51 3B D4 86 52 71 3D C4 13 4E C6 96 27
 CF E6 42 DE 1F BC 83 3A 61 53 D6 B6 AD BD DC F5
 EC F9 1D BD 67 CA D1 24 84 6D AB CA B2 4A F2 89
 CD 20 C2 55 04 34 50 31 DB 87 B0 90 A5 64 DB 98
 6C E5 4F 5D FD A2 43 B7 C9 DF 39 7C 96 31 FF DE
 60 46 06 B3 24 B9 3A 84 C0 78 4E 17 18 74 E9 4A
 87 E3 A6 0D A0 2E 70 C0 2E D2 7C F5 4C 74 49 97
 C9 53 87 AE 14 62 D5 EA 6E 59 4A 26 DB 66 9D 23
 5C DA FA D1 84 FD 58 C3 B3 F2 1B 8E F7 93 62 A1
 92 35 4F 3D F2 77 8C FD FB 16 11 0F 70 B6 23 02
 75 1C 7A 1A B8 07 21 A8 13 FB E3 0B 80 51 6E E9
 46 D3 72 12 66 AE 58 9A C5 9C 9A C3 73 3A 27 D6
 E1 E4 B0 F5 28 9B 7F B8 8E 11 05 6B 22 FE 76 55
 8D 60 1C C2 D2 F5 C6 F6 FB 52 5D 7B 82 2A 0C 7F
 05 8F E9 9D E8 E2 54 6F 59 B9 C7 7A CF 88 A1 34
 D1 06 6E C1 D1 3A C4 CF 40 81 62 E9 FE C5 3D 84
 40 C2 88 5F 59 00 FB 94 1B F6 9C 7B 5D 41 E8 90
 7C 61 AE 3D E3 74 F5 87 B2 59 85 6E B6 49 02 2C
 91 D9 F1 7A D9 A4 47 1A 19 D8 1F 0D FF 57 A8 8B
 57 A2 3C F9 87 10 5E 88 B9 29 A2 DA 71 94 90 89
 D7 F3 25 0F 40 3E 4F 0D 1A 4A 43 36 FD 4B 4A A4
 06 6C 1C C1 88 AB 4A 8C 30 90 40 A1 A6 F2 75 3E
 35 51 BC D7 51 65 76 00 EF BE C0 20 4A B3 3A F0
 88 69 0E 09 51 BE ED 0D B0 32 CE 74 0B 94 31 0E
 A7 76 32 8D 91 FB F7 7D EF 07 AD EE 0C 2E 01 C6
 31 29 C3 1E 78 C7 76 46 29 19 7B F3 C7 C8 A5 4B
 4C 10 5C DE 00 E5 CB A9 E3 B2 E4 03 2A D8 CB 23
 0F A0 DC 1B 92 49 D0 36 C9 6C BD 3B 8E DD 2C 8A
 E1 AD 19 C6 3A 71 E5 A9 77 69 3E BF 9F 67 8A 28
 44 64 37 2D 94 15 90 AA 58 1C 95 0A 0F 5C F9 A7
 94 CD E3 CD 63 80 40 CE 1E 2C 60 86 55 21 BF DC
 4D 86 70 96 F0 6E 57 20 46 7D E3 62 A7 D9 46 F1
 1E C7 54 37 A6 D6 66 08 28 06 45 E1 CE 19 2B 00
 E9 C9 7D B0 BD 23 03 CE 4A E3 B1 7E F7 93 62 F0
 FA 6F 42 B7 09 30 69 52 B0 DB 33 B3 F1 E6 7B 03
 CA D2 C1 46 42 4D 3F 41 D9 77 88 63 03 08 80 95
 8F 44 99 EC 1B E8 ED 27 0A AC 54 D4 89 06 83 DC
 AD D9 D5 04 9D B3 AE F3 25 F8 E9 E9 2B E3 3C 82
 EA 80 8A B0 B5 AA 71 F3 DF 93 39 FF 24 2E BD F5
 88 4B A8 5C F7 79 79 06 B9 F5 73 B9 35 F8 85 D6
 93 D4 79 0C 9C 8E 81 8F A0 93 78 C0 D7 10 87 62
 D1 59 9A 3B A5 CA 14 6E B5 70 11 B7 77 21 D6 C5
 09 E3 47 22 3E 06 D0 DB DB C8 E0 18 83 5B E4 22
 F9 3F 23 A4 04 E2 99 BB 8D 1F A9 BE 08 B7 91 B1
 AF A6 56 36 56 7A 44 4E 03 8C 1D 95 A2 C3 12 63
 B0 6B E4 06 B5 B6 19 90 7A 33 2D CE FC DB 27 04
 DC 49 16 85 EB 24 44 29 41 69 51 5B 8D 64 A3 3F
 3D F6 C5 60 20 9A A9 BC 50 36 64 78 49 38 2C CB
 87 32 A9 DB 37 66 76 D4 5A 90 80 EC 9D 28 E5 BA
 53 7D 05 64 EA 8F CC 79 A8 FC 0B 5E BE D8 A0 09
 A2 A9 01 A2 48 EE 6B D7 4E 3B B3 29 5D F0 FA 25
 11 82 20 7B EA 0F 45 3D 4B 17 F8 50 F7 F6 7D 38
 82 70 9C 20 E4 CC 4A 43 24 54 A5 C4 00 CA 23 05
 96 9C CF C2 DE 76 8D BA 74 1C 9A 33 82 F4 50 AF
 04 E2 53 49 F7 26 BC 6D 48 CD 54 74 4E 38 9C C6
 C6 A1 85 BF FA 47 13 94 68 F8 0F 1D 4F 02 AE 7F
 15 E1 22 D7 9E 6F A7 58 1B 75 3F BB B4 92 45 87
 82 9E AE 86 B6 27 45 80 C1 3B 5C 14 15 F4 7A 6F
 5C 40 47 E1 C3 B9 31 EC 62 A9 62 A6 92 2D 75 9F
 BC EA F0 C1 86 AD D4 6A 07 54 4E 39 EC F6 1F 6D
 79 C5 76 7A D6 1A 2C FF 9E FD 41 25 00 EC AF 66
 EC D6 88 E9 86 B6 51 B3 02 5C 83 4B CE 71 19 92
 F6 DD 29 3A 84 F8 6C A5 65 5E E6 B3 13 7D 55 18
 76 0F 51 EC D0 AC E2 A9 D3 BE E4 D8 99 B7 2F DC
 7C 52 F2 2D 0B 55 63 5B 38 C2 48 07 83 A0 68 F9
 F5 42 EA 7C D4 16 11 F2 03 A2 2F 36 B8 51 8E 71
 70 3C 1D D4 03 87 D2 4E F9 92 76 13 A6 EA EE 62
 49 1A 19 C7 3D A1 54 45 B8 E3 49 C6 92 FD A5 F7
 09 92 26 40 76 F4 2A 49 91 06 4A 44 FC 7F 33 4F
 3D 94 BC FA DA A2 81 8B FE E7 7B 50 63 9B 7C CD
 CB 6A 3F D6 AA FD EB E2 20 54 ED A6 4D 88 6D 5A
 05 24 DA 42 28 EA 7E 95 D2 0A 36 09 7F 12 30 2E
 90 A9 B1 BB 24 94 15 05 E2 16 97 84 C8 20 C3 DC
 FB B1 94 0E 10 D3 3C D7 48 4F FF D3 E9 CF 8E A0
 6E 52 09 F7 19 C1 A1 F3 BC EE 62 3D 42 74 3B AD
 BD C5 10 0D 1B AF E5 74 FC 47 19 0D 10 96 E7 3C
 12 45 8B 85 EA 0C 89 47 F9 26 1C CE BD FF A8 B2
 09 09 E3 AD 8A 87 54 19 5D B9 80 2B 0E F6 6A F0
 2D BF 47 9D F9 4E 0E 75 7E 7F 38 71 21 69 24 A8
 D3 2B B9 A4 95 C8 A1 32 84 A7 42 AC 09 F5 30 82
 4B 2E 60 7A 24 61 45 76 6B 2A 5C 51 C6 DA AA E1
 18 D5 D0 68 D5 EA F5 06 5A 79 0B A3 34 82 8B E0
 6A 76 26 53 56 75 0D 69 F9 33 47 D1 37 7A 0D 73
 3B EB EE 44 72 D6 E5 47 13 48 67 77 49 E5 F2 68
 B0 91 B4 A5 25 B4 D2 B1 25 DB 2D 7A 2E 74 5D AE
 BC 36 6A 35 52 4B CB 97 09 3E A9 97 1F 1D 01 FC
 6C B0 3A 5B 10 23 74 68 56 31 A5 9E 53 DD EE 03
 DF 37 02 B5 53 78 EF 8B BA E5 01 05 44 02 A7 60
 11 D7 EB 81 3D 51 E1 17 EC 6C D8 97 97 5F 16 AA
 3C 8B B3 30 03 6F A8 D4 EE 45 2A D6 3E A6 23 BD
 A6 3B A9 08 75 C3 67 73 37 78 6B 06 7D F4 F3 AB
 89 29 2B 6C 64 3D 07 FB D4 22 B2 9F 1E 11 5F 27
 63 4F 4D 7A D2 F9 16 24 44 5A 55 DD 8D 4D 9A 1A
 A3 3E AC 72 0F 16 1E 36 5A 79 6D 97 9A D5 04 D0
 1E 62 2F DD 02 5A 01 11 26 3F E7 BE 22 01 AB 6F
 38 87 DF 6F 44 29 EB DA 3C 3A 74 87 5E 26 F9 44
 A4 7E 7F 1F EB 2A 1A 45 6B A8 73 05 D3 7E 5B D8
 50 45 AF 73 0C 03 48 82 A3 C4 40 24 F2 A0 A3 3A
 28 51 57 96 32 E3 AF F0 02 29 36 7C C1 35 FB F8
 C2 41 EF 32 A5 10 AA CC 96 CA 55 8D D6 80 D0 15
 7E C8 4B 34 91 CD D7 53 1D 9E A8 39 21 E8 EF BA
 30 18 2D FA 99 3D C6 2E 1E 02 D5 C7 E8 67 E5 02
 B6 72 13 CD 10 42 B3 40 D4 12 A1 98 2B E3 99 8C
 D3 05 32 DB AC AE DC D7 F2 02 C3 5A 15 8A 39 EA
 A3 2D 47 01 E3 BE 7E 14 C4 D8 4F DF 3D 4A 12 AD
 50 87 0F 1F 83 31 6C E8 7F FC 09 E0 0D 0C 01 82
 4F C1 EB C8 A0 C2 F1 E7 6F CA 6B E1 30 6E 05 3F
 0B 0A 74 3A 35 6E 05 13 DC A7 81 B8 C0 EB EA 9F
 62 9C A6 54 0F 4A A6 04 A1 E7 2A 4D B9 F0 25 05
 F4 BF 69 A4 73 08 59 E7 B5 7F 24 91 EE 5F DA CE
 9B 0E 9E 7B FD 15 2D 11 39 70 B6 F2 DD 29 CC 24
 A7 2F C2 77 76 EA 98 A4 36 F2 70 98 93 0D B1 B8
 F1 8F AA 33 BF 61 95 CB 7A 5F 2E CE 19 A8 00 33
 CF 24 CD 7B 4D 39 F1 CF 58 D0 F7 65 D0 BA 26 96
 C5 21 3E FD 28 96 DE 23 65 61 2E 43 08 CB 37 3D
 69 1C 6B E4 28 39 34 55 BD C0 B2 C8 F4 D8 02 A8
 FA E2 23 56 5C 76 FC 06 25 43 50 F3 72 06 B0 8A
 F6 16 52 1D 92 3E CF 63 2F 6D FA 46 81 EE 07 B8
 6B 7E 00 31 7D D6 19 41 A5 23 77 F5 41 B7 7B 7B
 FF 2C B7 52 A3 86 F1 62 E2 CA 87 A5 4A F4 BB 14
 C8 08 49 C9 28 6F 90 51 C1 0D 2E 27 06 83 59 B1
 31 01 EE 10 07 51 3C B0 7D EE 6B A9 CC D5 B7 E6
 22 DA 44 00 47 08 7F 32 2C 4E C4 B7 C0 A1 A1 BD
 C6 28 88 CD 6B F9 99 01 AC 4E 4D 3C 3F EC A2 46
 B9 DB 5E 57 56 86 1A D0 73 2D EA D3 FD 9A 95 0C
 ED 26 D4 86 6B 07 C1 83 15 75 14 57 0C E4 7E 9C
 C3 61 60 16 A4 AB 19 F0 92 AF 97 CF 4B 57 B6 CC
 48 7A C3 0A 14 CC 09 69 00 0F 51 87 55 3A 0F 32
 DE 04 71 A1 69 D4 30 DD 6E C2 0D A3 F4 43 05 DA
 69 38 CA EA DD B5 DB B7 A5 1D 7A 75 EA 4D 50 17
 EE 6A 00 F2 D0 23 82 78 AB 93 E8 0E 23 C4 A2 37
 D4 39 93 CB C8 A5 3C D7 D0 0A B6 A2 24 7A 7B 61
 95 05 C0 65 3B A8 73 A0 C4 9E F0 A2 F5 E8 E9 A8
 24 3F 91 B8 C8 4E 5B 79 71 5B FA DA A9 45 83 3B
 5C 86 C2 B3 47 BA C9 C0 21 E5 8E 27 ED B8 F5 44
 C5 8C E6 61 27 61 2C 54 52 37 E3 B6 F8 46 A5 EF
 1F 41 37 B1 CC 64 36 98 2E 68 C0 1A 7B 47 10 D0
 CC 5E E4 C6 AC 50 D8 80 CF 21 A9 22 97 5B AA 2E
 A0 A4 BE 39 FF 38 AC 32 8E 5A 62 12 12 16 CF 68
 C8 51 26 36 E6 DF 06 98 67 0D 30 25 EA 73 E7 48
 7E 4E 27 9D AB DB 08 D9 D5 A4 CD 39 0D 60 CF 34
 79 F8 88 45 85 33 52 6B A1 FA 8D 71 F9 6C C8 24
 B5 35 BE D2 A6 FF 45 43 CA 63 C2 2C 8E FA 50 2A
 CD 42 18 60 AF CE 87 02 13 99 EA AC 51 39 DA F4
 CC 47 A5 35 66 95 EE 4C D0 90 66 9B 14 A5 A3 8F
 63 DB 42 99 1A E2 64 74 BB C2 60 F5 46 62 67 68
 3A 90 2F 0A F0 E8 06 13 C6 67 1A 25 A6 D8 56 94
 B4 60 18 EC C4 68 9E DA C4 D7 11 6D 06 D0 C2 BA
 FB B1 00 37 D3 2F 56 16 D1 8C 17 25 36 28 76 88
 50 0D 1B 4A 99 65 7C 0B 95 C0 70 88 B1 64 89 96
 25 47 44 08 57 3E 14 AF 62 13 51 47 C3 FB 46 7D
 31 E8 0F B9 5D E7 B6 94 7D CD EA 04 8E D1 BD A1
 E9 06 C2 07 3E 50 67 CA B2 49 8F F5 18 90 57 5D
 8C E8 DB 64 80 DF AC 2F EC 80 D8 89 5E 7E 22 2C
 67 EC 86 04 62 AF 4E C6 13 53 55 C3 F2 A1 21 D7
 67 A5 D7 49 74 3E 3E EB D3 2F 9D 84 A6 7F 8B 7C
 2B 7B C8 04 1E A7 C5 40 BC 27 25 09 93 7F 29 5D
 33 4F C3 6E 82 6F 55 61 AC 35 68 83 C4 FD BC F2
 1F 19 E7 33 26 18 90 90 10 EC CE 50 6D 6D A5 5B
 15 09 85 88 CD 0A BD B0 B3 1A D6 D9 BA B6 71 24
 CE 7C 61 7F 2E 7A 41 05 5E C6 8F 91 98 D9 60 B1
 1F 9E CE A2 B6 DA A0 3D 82 A7 17 F7 E5 16 E4 ED
 42 26 9A 8F CE 2A F6 6A 11 7E C0 A5 F2 A6 60 0C
 B1 FA 98 F5 62 3B 63 F1 FA 24 4A 0A 36 34 E0 13
 0B FA 43 89 5C BE 32 21 16 19 E1 8A 5A AF DC 46
 2F B5 40 4B 85 CD 90 0F 49 F8 36 5D 9A A8 3D 16
 EF C5 EA 1D 6A F4 71 CE 8A 5E C6 2B 24 9A 9B A3
 B9 FD 63 17 12 67 F1 EC 84 CC 9E FA 4F 65 0F A9
 7A 25 96 E0 34 17 56 A9 3B B2 95 2A 5B 5E C1 94
 F1 0F E0 8C 6B B3 34 97 A2 80 F8 9D E3 3B 42 1B
 1B 01 39 CA 09 A5 74 26 5E 3D BB 2C 0E 8A C1 2D
 3E F0 F4 7C 1D 43 B5 1A 12 14 4D 93 A2 D9 46 74
 A3 88 3E B8 D3 91 91 46 C4 A0 21 55 2D 69 EA A9
 3C F7 D9 39 B8 E0 4F 99 16 95 3B 57 F3 B3 E8 BC
 73 C9 A9 70 0A 5B AD 3F 92 3D BE 8E 03 7E 41 25
 54 67 14 7D E9 01 F7 C1 44 2C 5F 9C 26 F1 C2 F1
 5D 35 10 8D 72 72 64 6C 62 52 6F B8 1E 89 A8 1E
 29 14 7C 18 89 A2 BA 4C F9 14 49 57 E0 5F 98 63
 8B 32 3B A8 D9 22 D6 EB C8 27 00 22 32 A9 43 83
 48 80 49 12 DA 52 E3 D5 35 E8 F1 58 32 43 BC F7
 10 BB BA 6D 7F 00 16 4E 8A F4 F7 71 7E F0 3E 93
 D7 28 DE EA 05 15 9A FF 6F 19 96 55 92 0E 6E 67
 BB A3 BC 5E 76 82 41 7F 00 B7 6E 51 9A 5C A0 99
 89 7E 59 02 F5 CD 42 1A 2F 53 41 DD F2 33 54 75
 D1 13 BB 0B A2 9F 57 2C 9B 12 DA 91 3A A0 F2 BA
 4E 8A 50 D8 24 44 C4 09 0F 4D 5A 3E B4 61 7B 9B
 DB 4C 14 87 3D AB 09 FC F1 26 FD DA E5 E0 6B BC
 B0 F2 E9 02 41 BF 02 E7 75 81 48 DC 47 C4 EC A6
 67 A9 FC F7 C6 55 4F 00 F6 5E BE 4C 5D 78 53 D8
 EA A8 91 42 07 B5 2E 73 AA BB 25 4F A7 DC EF 5A
 18 0F F9 95 8C B2 FC 24 1C D6 89 E2 0E 1F 7E 38
 FA 29 DA 6C AA 62 0A 80 A2 2D D5 7D 6E 50 4C 64
 1A 14 7C 6E 72 AA 58 4A 72 CD 8A 47 26 A3 8B 47
 66 E3 C0 FB 33 76 36 26 DC 30 3B 7C EB 08 E4 5B
 3C 32 F1 16 A2 C5 74 3C E2 C4 CD 95 12 29 FD AB
 61 7E A0 54 43 0B AC FC 45 BE AE 0D D9 BB 31 55
 85 22 95 94 DC E8 B5 20 8E 4E EA A4 09 A8 C1 88
 1F 20 EC 23 DF 91 B0 07 3A DB 25 0C 1F F3 2F AF
 64 2E CC 99 A2 AE A8 A1 0C 93 F3 C2 2E 84 46 BB
 18 DA C6 68 E9 36 CA BA 42 45 E8 80 A9 F7 7E BA
 07 E7 86 9F 81 E4 16 F4 EC AE C6 AB CB E2 9F 2F
 FB 56 E7 44 08 79 EB 17 CA 52 1B 14 09 9E 91 F9
 4E 39 94 D3 E9 AE BC 68 C4 B0 FC 5F F1 BA B6 6D
 21 5D F3 59 EB DB 94 5E 9A F4 82 75 7F 93 87 94
 A4 B1 C6 67 B6 9E 31 73 3D 84 3A AC 15 CB 0F 7B
 39 B7 FC EB 5F 70 FC 57 8F 13 58 D8 29 E4 F7 47
 C2 33 44 1F C0 EF 91 60 08 15 41 10 F2 1C 26 5E
 61 DA 1F F0 5D B1 4F 9E 8C B2 50 3D B8 21 A5 03
 4E D0 B5 41 D0 91 93 1F E0 E9 5C 6E 0D 1B EC 55
 8E 55 4B 00 87 FF EB E4 98 52 5A B6 86 08 BB F4
 D8 14 82 DB 17 EC 37 75 A0 9A 2A 2B 4F 97 7F 8B
 E6 0D CC 9C 70 53 5D 42 A9 85 BA 60 9E C0 F4 B9
 9B 31 C0 51 CC 7C 4D 1A 83 36 AE 48 5C 68 49 56
 BC 9C DF 4D 68 78 DB 1D C7 02 9A D5 66 C5 0D 46
 9F E3 80 65 3D 76 A8 F9 79 7F 86 0B 6F A7 69 BC
 19 A3 D0 9D 62 3A C8 15 A1 94 55 07 E7 81 F6 A5
 3C 69 CF E6 13 97 66 6A 20 11 48 1B 07 35 C5 8D
 BF 65 F0 49 7A A8 31 9D 34 A8 CD 14 52 49 D0 AA
 0D A7 7C 16 99 E2 19 10 C7 08 CC 72 95 94 65 5B
 ED E0 9D 2D F4 A6 39 A4 0C EA 99 9D D8 99 2E 0C
 EF 99 58 F9 D0 29 A4 03 8D DE 68 EC 5D 92 21 C5
 31 A7 C4 1A 0B 20 C2 2F 4D 19 35 32 4F C5 16 C5
 B9 EC 2F 13 30 D0 ED BA 5A EB 3C A1 E6 4C 3D 93
 68 1A 23 45 E8 3B 75 ED 3F F3 95 F9 81 F6 43 F4
 C4 0B 84 07 84 51 FA 79 17 52 0A B6 89 93 34 DA
 B7 28 06 6D 1E 5C D3 49 2D 31 16 8F 94 30 75 EC
 3D 11 9A 91 41 01 0F ED E8 3C 21 FD E4 25 C0 ED
 FF 2D CB 79 16 6C C3 79 DC 4E 54 1F 4C 3A DC 06
 5F 1F FA B4 A2 17 86 2E 62 8F 13 C7 E9 0F 01 82
 96 A7 9C 8C 2F B9 4A 62 62 0E 7B 77 99 58 02 03
 C1 DB 86 F8 44 5E DF 07 D0 19 23 04 A9 3B 45 C0
 1B E2 1B 24 22 99 A0 C4 62 20 74 52 A1 FA 85 C5
 74 95 8E 5C 3B 40 10 1F 5A 95 90 CF A6 62 2D 4C
 46 6B FC 76 61 AB 46 89 21 1D FC A6 F1 3E 2E D5
 24 C4 92 05 D1 D8 A3 60 55 07 F7 61 CE BD 4C 0F
 F3 E0 12 A6 B2 8B 8C 8C BA 73 1D 39 8F 2C 59 D0
 0C 69 52 5F CC 6E 53 E8 32 95 FB 04 4D 1A 14 EF
 42 55 90 6E 5C 89 10 E4 6C D9 51 42 92 DC C6 24
 7A 41 BE A0 C3 11 66 C5 CB F2 18 27 69 6D FA 4E
 3E 7C CA 6D 74 55 4D 17 7B 96 3E B6 C4 A5 7E EB
 EE 67 3B 74 25 81 08 49 79 FA 86 48 4D A5 90 9D
 A0 98 69 49 0B C6 A3 13 B8 3C FA 12 B5 50 BA CB
 10 69 6C 7C DA 07 B3 2E 3A 70 49 C3 A2 7A FE 04
 14 57 8E EF 01 98 6C 5B 2A AD F5 7E 62 68 D4 63
 E3 D3 E5 1E 86 96 C9 AE 65 E1 C9 88 47 AD 45 17
 EF 48 43 15 6B 2B 6C 99 59 88 73 B8 20 B0 66 59
 36 AA 9F 72 E7 9C 2A 83 1B 1F 24 45 49 45 10 85
 DD 0B 95 BF 74 C8 69 0E 33 6A 51 8C A2 F3 AE 48
 C6 80 2F DD E6 C3 47 E3 97 DB 18 6C 1F 54 7A 9C
 7B D3 6E B1 56 57 13 2C 68 ED AD C5 00 99 36 83
 68 2D 87 88 DD 4F 56 AA 4D A4 FA 51 B4 B2 AC 52
 DE D4 73 31 9E BF 1B E5 C7 D3 C7 80 A2 6D 5F 75
 D2 05 79 9D 9D FF 0D B0 CC 50 DA 94 88 D1 79 A4
 E9 83 B8 34 6B 80 40 03 3E 72 1E A9 D5 EE 92 2A
 B8 68 93 FE AB 06 57 F9 84 8F C4 45 3C 60 5E 0A
 EC 39 ED 46 1C 5A 93 FD A1 63 EF 43 79 76 59 77
 6F F5 BD E2 13 C8 89 DD F4 41 71 D7 4A 78 4A 57
 E4 9D 78 02 51 66 D5 4C CE 25 C9 C4 F3 37 A5 37
 28 59 EA 91 8B A2 69 9B C7 3F DF 13 71 79 DB FC
 7A 2E 8F 26 DA 54 80 38 2B 7A E0 62 B1 D2 79 29
 E2 D3 A0 BD 6C 01 8E 3A D3 74 34 75 DF C6 13 74
 CE 99 37 CC 75 84 B9 B5 4E CA C7 84 E2 5F D6 BB
 FF AE 4E 36 1E 92 C9 45 C1 53 88 97 EA 1D 05 89
 B7 88 62 E1 11 0C 05 49 2B 29 0A 67 1B 69 E7 58
 B9 57 CF 5B EC AD 36 04 81 DC F1 DA F2 9C 4E B7
 61 83 6D 5B 3E B5 31 9B A6 DA 76 B3 4D DE 71 42
 97 88 1C 35 8B DD D3 DA 9D 5C 45 3B C7 F2 46 BD
 E9 22 C8 CA BF F8 46 BA F7 E0 58 BD EE AF BA 17
 67 21 A5 51 C9 0C F5 9B 63 30 CF 21 01 9A 8B 8B
 59 38 EE B4 91 BE B8 56 29 6C 64 3C 9B 99 1A C3
 48 7D A4 3B 13 2A 8E C0 54 61 2B D7 EA 55 A6 9D
 3F 9A 30 9F 16 49 06 B4 6A 26 E9 5F 2A E4 55 C0
 34 E8 68 28 D3 0C 94 88 C2 9F 5D E4 96 30 C2 16
 11 04 8A 87 EA 6E 1C B7 C6 E0 F2 70 C3 6F 77 15
 4F 22 67 0F E4 E9 41 1F 40 67 BE C8 E5 E9 68 6C
 37 78 1C C5 58 72 9C 50 51 4C 2D C9 84 A8 62 FF
 C7 B0 EB 15 90 29 8F 3D D0 85 5E 6B 8B 7C 96 77
 A7 22 01 D1 74 6B FA F3 9E F4 03 01 3E 92 11 44
 31 A2 DC 79 E8 93 2E CC 94 06 C9 E2 66 B5 7F FB
 3E 37 0E 04 14 EF 02 3F 7F 0D BB 6A 7C 07 40 F7
 EA 67 0F 65 07 1F 95 07 E2 00 7D C8 E2 E5 8F E5
 16 C6 00 1C 2D BF B5 48 D0 34 88 5F 74 AC 68 52
 A0 A0 FB 29 4A 6E 3C 0E 0D E1 F8 D8 30 24 36 B9
 00 30 39 63 18 60 41 63 FB B7 58 00 A2 A8 56 33
 A3 5C EC 3C 91 4B 10 D1 26 B3 3D CD 0D 0F BE DB
 FF B8 C0 7C 63 CF A1 C1 76 A9 E0 8D 33 85 77 8A
 05 50 77 4D 26 A4 FD 3F A8 C3 43 C5 92 87 9B 29
 30 9B 40 45 F4 92 43 37 CF D0 20 CF 5E F3 5D 8F
 AB A3 51 69 AF EC 56 75 E7 55 0C F9 2A 9C 00 8F
 59 B3 64 9E AF AF 80 66 B8 0B 2C C0 C7 E8 AA BC
 15 E1 48 50 CE BC C9 F7 1E B5 1D AB 86 E2 69 53
 36 5F CA F9 B2 17 C1 1C 66 D4 51 D1 28 A8 2E F1
 88 B3 A6 24 B1 6D BA CA 4E 29 E9 83 76 45 2E F0
 B7 8E 6D 03 E7 6A AF 5D 15 D3 9A 69 14 1C B2 43
 98 59 02 58 0B 5E 77 57 E9 85 C7 55 E2 5D 6F FA
 7A AA 59 46 E5 FA AF 29 63 7F EE 51 33 8C 7A FF
 C5 9E 70 7C 39 EF C5 D8 88 A8 14 CB 33 D0 41 10
 79 F4 9F 41 5C E4 67 C5 CE 16 94 65 FE 2D ED 95
 25 9B 9D D4 50 C2 B1 FF 02 2D 4F F6 15 05 16 EF
 C7 23 E2 4D 29 0B FF A4 33 2E 6A DC 08 24 C9 CA
 15 22 A6 52 B7 6D 8F 7F D0 5F AD 48 64 38 B4 FC
 88 F2 27 80 84 48 90 4F 53 35 16 36 18 05 B2 02
 CE 7A B0 9D 0C 64 7B 3D EF A2 B1 A2 BF DB A6 DA
 2C 0C 6F 4D C7 08 A1 FF 36 6A 5C D8 DD DD 44 9B
 5E 08 B9 0A FF 77 D7 6F 37 D5 DD 50 B9 C4 2C E8
 CC 0E 53 F1 F3 0B 62 8A D9 B1 88 2E 8C 55 03 80
 65 91 39 18 47 B6 69 D6 A0 59 C4 91 61 8F 45 8D
 19 0A BB 2D 0E 1D EE DA 61 9C AD FC FD B2 5F 09
 E8 75 26 15 FD AF 39 C5 C2 B7 41 17 E6 F9 3D A9
 65 47 38 0E BF 7F 0D 7A 3F 5A 3B 13 A9 31 A7 58
 B4 4D 56 25 FE 61 21 51 B4 A7 AE 5C EF B8 B2 58
 17 FB 93 4E 44 F1 DA E1 D4 83 40 E4 15 7A 06 F5
 C8 B3 F4 08 62 31 68 AE 3F D1 94 70 25 3C 61 CA
 0A 53 A6 9D 39 9A 45 08 C5 C7 C8 21 1F 4A 90 D7
 AB CE 04 BA 5F 8E 6B A6 7F 96 AA 5B 28 6E C2 4C
 EC D7 EA 69 61 F7 4D 94 9E 6A FA C7 4B 27 52 CC
 59 AB 66 E3 76 32 91 1C ED FC 71 41 D0 6F E7 8A
 D1 A6 44 12 4C 1C 08 E5 F3 70 F2 C8 A6 95 3B ED
 30 D6 5B 5C 9B 72 8B AA C2 C8 29 F1 6F E8 A4 8E
 96 AF F1 8D 4C 92 72 20 9B 37 35 0F 06 3B F2 FE
 7F E1 06 BC F4 57 B7 4F A2 26 42 88 BA 47 D7 0F
 39 94 E9 66 90 E5 9C 45 9A 47 20 A7 C1 71 56 3D
 9E CD CE 95 7B 06 AF AE 34 97 A0 7F F3 99 18 7A
 1D 32 A7 C3 56 0A A6 61 F4 64 E5 5C EB 26 6B EA
 78 1B 5F 93 0F 95 0E B5 0C B8 9C D1 0D 21 34 42
 D2 47 EA E3 76 61 1A 0D 9C 5C A5 3C C7 C7 17 8F
 C2 A3 11 46 AD DE C1 60 0F D3 04 00 C5 B8 AA AA
 77 B3 B5 69 DE 0E 32 5C 06 F1 D4 BD 20 E2 34 E0
 0F 46 1A E9 63 63 55 83 93 C0 EE BA E8 AF 1B B3
 26 D4 67 3F 86 EF 1C 33 F0 6D 3C 44 7C 0F ED 01
 C0 E2 85 8F 6B 97 17 40 B1 CF 74 8E EB 1D 76 B0
 EC F6 DA C5 E2 40 EE 42 E1 62 E2 22 FC 1A 2F 42
 CC 57 5F 81 B5 00 B5 D4 C1 80 79 C9 BA 5A 51 F4
 CB A8 BD EB 59 28 F0 D0 09 A9 A6 4C B6 2C 8E F2
 C1 18 90 4D B4 BB B6 0A 4E 99 D3 7F A1 34 F7 EB
 7A 67 F0 46 46 E4 AE E0 F3 FC D5 85 5D A5 8B E3
 A4 54 2F B6 9E FB 6A C7 89 AF 69 BB C9 99 81 16
 94 B7 5F FF 6B E7 71 4D 27 D9 11 9C 4B 3F 87 8F
 4D 5A 53 AB D0 00 59 D4 E4 96 ED 6B 34 15 E6 EF
 3C 7C 8C 56 7E 2D EA 53 3B B8 44 DE 88 97 6C AC
 D3 60 98 7C 75 79 9B E2 33 25 50 B8 8B E9 3C 7C
 BD 08 28 2B 2C 56 38 D1 81 9C 0A F3 2E 1A 36 FC
 BB BF 3F 45 12 76 60 BC 12 2A 4E BB B2 63 D4 3C
 E7 77 B3 9E 31 F9 E9 EF AB 2A EC 4B 5C 9C FE 3B
 FC 9C 0B CB D4 76 3F A9 BF 72 17 4A 90 75 83 6B
 88 C0 65 A5 35 40 24 56 3A D2 CC 17 80 C1 A7 55
 41 33 1B 33 5F 96 80 0E 77 FA FF 18 C2 4E 7C BD
 F8 5B 47 F0 9F B4 D0 65 3A 73 DE F0 CF 68 B5 95
 85 B4 2B AC 9F 9A 81 93 64 45 70 8D CF 2B 08 C0
 08 93 70 A5 4B E5 28 B5 77 67 33 CF A7 C4 C3 3D
 AF 84 42 9B 8B 3C A8 F1 0D 93 14 93 B4 E8 1D 35
 30 44 CD 9E E7 F4 EC 1C 44 78 AE 7F 8A 7C 28 CB
 D4 C5 4E EB C0 91 75 C9 1A C0 57 43 11 79 4D 6E
 AA E2 C8 9A E8 03 93 8A DD 65 82 B7 90 A6 CD E1
 26 3A 05 71 94 3C 9D 05 06 20 0F 2E 44 D0 78 15
 2F F4 7D 28 0C 77 EC F9 3F 7B F0 2D 1E 0C F9 91
 D8 B1 53 90 59 33 39 E9 CA BF D8 40 30 8E 79 0B
 20 9C 27 E5 EB 9D E7 95 4C 16 59 F1 67 AB 23 A6
 B3 8E 9A BD 6C 8D 4C F5 9E A8 5E 36 05 DA 82 89
 82 81 8B 4B 1B EA DC E6 9B 55 A4 22 CD 2E 03 D8
 0C 03 C8 D6 65 13 93 C0 1F F6 98 6A 72 60 36 BD
 19 43 90 26 A0 5B 3C 1E 74 97 B5 7F FD BC B3 1C
 33 3D 0E D6 91 44 C8 DC BC 24 8B 7B 9C 57 E9 EE
 1D 89 3C 1F 41 15 FB 4A B6 27 54 CE 72 D5 37 62
 54 AB 39 AA 3E 48 F5 4F 70 CD E0 4F 03 E8 00 1E
 2E 38 1A CB F5 CC 73 8C 49 27 04 31 F3 D5 4A 10
 A9 8C 9D 35 B5 A2 23 09 7D E7 D1 1A CE 67 53 89
 0D C0 55 B4 B4 9C D6 29 7F A8 DC 88 D9 10 0C 6E
 0B 9D 7D D5 15 9D CD B6 1C 33 2B 39 84 42 64 D5
 A6 EC 07 5D B3 9E AB 8A 53 15 CA C2 24 AC 86 73
 6C 59 B2 FF A9 F2 48 C4 48 FC 87 7E 1D 50 E2 85
 73 A8 45 A4 D6 B1 58 58 08 BD 4D 82 94 F7 8D 2E
 9D 15 80 62 A3 C1 AD 11 1A 05 EA 00 75 3A A6 8D
 A7 9A 83 C1 11 4D 6C 10 8D 23 25 C4 93 E6 5A 11
 86 39 A3 C0 FC 77 41 24 61 AA 73 23 05 7D 4C 57
 81 FA 65 2F 94 44 61 FF BA EB 0A C7 3B 3F E8 A0
 59 A5 FB B9 F1 4B B2 95 DE 96 0F 8B E2 7D C0 F1
 2C BE F9 05 2F 16 BC 17 F6 27 43 A4 81 39 92 E3
 06 B5 89 8A 84 27 22 42 37 25 E6 EF DC C2 AC 9B
 CA 0A E7 CC 7C 23 AA 40 6F 60 BB A6 6F A4 B7 21
 6C 5A B6 71 41 FC 79 4F 2F 28 5D 0F 5E 84 52 8D
 38 A1 58 95 DA 93 4A DF D9 CF BD 4D E1 E2 BB 5C
 FF 6F 2D 40 AC D2 D5 0E 1C 40 AD 9C E4 72 32 90
 76 41 60 8E 42 55 54 8A 9D 91 D6 CA E7 EB 33 E8
 F7 2D 3E A8 E9 57 32 E7 94 0C A8 E3 3C F6 93 0F
 67 0C 92 5A 0B A6 3E 9E E9 5E 40 07 8E FA 78 0C
 99 56 4F FC E2 35 07 05 29 D2 5C F1 51 2B 4D CC
 32 1B 69 8E AF AB 0C BE 83 C8 B0 65 8F 22 12 2E
 12 3A 14 1D 22 94 8E 58 76 5A EE F9 13 6F CE 13
 34 42 F8 07 08 1E 54 71 24 F8 12 4C F8 81 BB F1
 E3 6E 59 61 03 4B C0 45 08 6B 1B 39 34 58 52 BA
 67 1A 2B 8F EA 60 B8 1C A3 75 F4 E4 D1 91 4E B0
 C7 28 F9 6C 37 10 3C 8E 0C 18 7D EE 61 44 9E C8
 5F 70 25 F4 AA 98 F1 54 21 9E 21 D2 50 DA D6 A7
 DC A7 63 CA 58 12 CB DD DB EB 46 EC C7 CF 69 0F
 D5 1F FD 3A 6F 63 59 BA EA 90 9D 1E 7F 9A 59 54
 6F 17 0B 00 71 3B E9 6A C1 4B A4 3E 08 33 AE 25
 D4 09 18 95 BC 82 6F B5 43 4F 1D 0E 29 E0 D8 C7
 4F 15 FF 1E 72 2D 52 8C 55 0A BD 17 9C 18 00 A2
 CA E1 71 8A DC 28 F7 48 75 4E AA 7B C8 81 4E 86
 E6 50 7C 51 60 43 0A 38 3A 37 AC 76 5D C5 90 F0
 3C 1C 6B 4D 39 B7 27 DB 90 32 45 E5 D1 58 3F 39
 E3 51 F7 FF 07 26 B6 56 36 94 82 26 6A ED 87 C2
 AA 66 FF F4 55 00 B2 7D DA 30 34 E4 3C 96 0C 3D
 CD DB CB 8E 73 94 01 7B 8D E1 DD B9 21 1F EB E9
 E8 9D 2B 90 5F B4 D7 EB 88 68 40 06 D2 C7 9A 30
 EC 9F 83 B1 2B C6 64 EF A1 7F 67 06 25 E3 61 87
 D1 65 9C 1C CC 2F 39 2A CA 57 47 2D 18 7F 52 3B
 E1 DA 07 E8 64 42 6C 13 52 12 19 25 E5 5E AF 7F
 7A 9C 34 A8 30 CA 25 F7 96 28 DB B4 A2 AA 68 E4
 AE E6 A9 3F 34 83 49 DA D0 2A 30 42 77 2B BA CD
 72 1F 17 17 CA 94 AC CC 82 55 BC 4D 7C 8B D8 9E
 BF B7 58 EF 48 32 EC 72 F0 E1 F9 AA 7F 44 0A D2
 00 8C BC 3C 7C 06 65 A6 E6 05 DB 28 37 FB 24 F5
 58 2B C2 AA FA BF 15 84 F4 1E 60 A9 48 36 68 6E
 5A 01 84 47 84 A7 3A AE 59 F1 D5 0A 2C C4 ED 69
 F2 30 05 8F 4C F7 79 A5 7D 24 8D 44 54 37 2B DC
 01 8C 61 C8 CF 5E 97 27 04 49 BF 5B C1 E0 31 5F
 4F 58 CE 3D 2B 4A 95 3C 88 06 BA EE B3 64 1A 3B
 A4 C9 C3 CA 7A 85 53 6E 04 F2 EB 60 59 D4 19 5A
 0B 48 23 8C 46 87 02 DA 82 C5 88 CE FA 77 26 85
 25 42 84 70 1A 2E E3 78 49 37 BA A3 B5 F7 CD D5
 60 1E 98 1D 29 55 10 A3 3B B1 D2 3E 0B A9 22 DD
 68 6F 1D B6 4F 71 D9 E9 DF D9 5B CB D0 34 1B 45
 37 6E 91 66 AF DB 2C B8 2B 3A D4 42 14 C5 ED B4
 BC 41 F1 BD DC BB 1D D4 F9 A8 99 E3 BE 21 A7 D5
 C4 19 85 B0 05 23 56 7B 70 8D 64 FF 90 8D 41 33
 B0 07 26 AB E9 84 C4 3A 87 25 63 0C 6F C3 BD 3D
 D2 46 35 49 AE E3 81 41 D2 8E 2C E5 9D 79 F7 16
 15 32 F9 5C 89 F9 E8 0B CD AC 65 5D FA F1 47 5D
 1F 04 28 28 F2 18 3A B1 D0 F2 05 D6 7F EC B4 03
* End 1736521261 3410123267