* LTspice Encrypted File
* 
* This encrypted file has been supplied by a 3rd
* party vendor that does not wish to publicize
* the technology used to implement this library.
* 
* Permission is granted to use this file for
* simulations but not to reverse engineer its
* contents.
* 
* Begin:
 26 2B 53 1B E8 F4 FB AE 63 73 28 A6 BF FD 08 2C
 FD A1 9B D1 30 26 55 88 D0 81 93 11 76 11 42 78
 12 A1 EC 96 34 2C 23 F2 5E 83 37 BD 27 19 34 B1
 D4 0C 9A C4 A9 42 6C C0 27 53 27 95 B6 7E BE 7B
 FB 18 77 02 C5 98 95 82 C3 BA 14 F7 39 20 0F 79
 84 6A D7 99 4C FF 24 F6 CB B7 24 90 67 7F AC 62
 17 68 B3 86 14 1A E5 49 4F 24 9B 9C 4D 2A 28 6D
 42 AD E9 3A F9 39 93 B7 97 C6 01 B2 B0 8E 6B B4
 2E AF EE 38 05 9A 34 92 84 8F BA 37 15 88 93 8B
 82 76 63 19 5D 11 C8 88 B8 F6 66 E2 3E 0B D8 9C
 F0 FA 70 E4 27 E3 B2 B7 44 BA 0C F1 EA 0C D4 E9
 07 64 85 06 C3 BF 56 8B 51 8C 83 BE 75 83 10 24
 DA 48 3E 5C 65 29 11 20 B7 23 1D B3 E9 EB 4C 5D
 91 A3 9F BF 92 FD C1 03 74 1B BC 19 2D 80 BB 56
 5E B2 25 68 53 56 7F FE D0 EA 44 B3 15 D3 2B FB
 AE AD 8F 9D D7 DD D4 A9 80 74 EE 70 D9 45 44 49
 E0 FF F8 D6 24 A2 65 B2 3E 25 7D 97 CE C5 7B 18
 BA 14 20 18 E0 6A E1 82 94 17 A2 7B 6E 2D BB 37
 3D 59 49 AD D8 4C E0 EB EA D0 90 B4 A6 72 7C 5F
 73 23 CD 15 08 8D 5F FD 38 34 1D B5 D6 DC 49 36
 4D 57 42 75 2A 35 8D BE 51 75 55 06 E3 29 7F 7D
 F6 CF 91 47 06 78 40 A6 1C 9A B2 78 DF 8C 3B 4E
 59 9F 33 DA 28 C8 B0 BE D8 DE BC D4 A6 89 BA FB
 43 69 10 21 4F F8 96 BF 48 B6 12 61 A4 B9 FB 83
 E2 73 B8 96 40 66 01 6D 4C 59 01 A1 76 99 C9 83
 20 E0 14 92 C6 33 9F 36 65 24 AD 34 B6 8F F0 D6
 C9 21 74 84 91 52 95 60 57 7C 04 8B EE C8 B2 B4
 24 89 01 52 80 6E D4 E7 F5 61 20 2A 44 11 B6 CF
 83 FF 01 63 CA C4 57 9B 78 A5 21 FA 77 ED FD DD
 00 60 C3 4F 5D A0 BA 82 C5 27 DC 1A 32 2C 86 21
 C1 11 21 F5 27 D5 7F 29 41 59 30 2D 82 C0 AD 88
 13 28 36 76 81 B4 C2 0C 06 21 1D 92 A1 27 81 4D
 74 86 42 F6 BC 62 3F 4B 77 FA B9 31 6C 9F A0 C3
 97 27 86 F7 DF FD 52 A5 EC CB 19 B8 45 AE 90 4C
 F3 73 54 D8 46 D0 49 D3 56 08 F3 6E BC 87 E8 95
 00 17 7B 90 B7 54 FC 57 92 6D 92 E9 82 7D 99 33
 4A 2B BC 85 87 94 56 B6 3F CA 23 36 74 17 D4 F2
 DA DE 98 08 C8 C2 01 D0 89 4F 44 3C 12 24 4D 2E
 93 A9 CF 9E 59 29 47 F7 4A EC 2E C2 39 0C 1E FA
 D8 B9 75 E6 A0 B3 24 B3 80 9D 51 6A E7 47 D8 E4
 BC 23 18 B2 0D EE 27 8C CA 98 60 C1 00 09 5A E1
 7B 1E 6C 79 11 0D C1 40 28 71 53 A9 3C 30 A4 47
 1C 10 8F F0 0B DA 74 1B 78 1E E3 DF AB 6F 4A 83
 A4 1D 4C B5 2E C7 1D 4D B3 50 E8 C7 20 08 39 E5
 90 5F A3 62 C4 1D 4C 48 CE 9C 68 55 6F 65 FA 65
 44 FB 70 59 FC B2 2E CF DA F2 1B 23 10 72 4F 1B
 32 28 07 7D 0A B2 98 CF 46 57 89 CE C7 7F 4B 3B
 82 03 18 B6 46 0F CC 76 91 B7 35 35 A4 C5 FD 41
 2E FD 24 31 4C 02 1C E6 08 99 5D 79 4F 49 6D 49
 29 E5 C8 45 F3 11 C0 F7 C0 BC E9 E2 A2 B3 69 5C
 7E CF FA 5F 8E 84 CF 90 0E 8E 28 1C 09 25 28 88
 42 5E 20 54 4B F8 79 61 56 23 9F 0B 9E 7C 68 19
 B3 2E 34 3F 6E 02 E7 CC 18 7D 72 83 C9 E9 9C F8
 D5 63 79 96 58 28 99 A7 74 70 7F 3A 6D 81 CA 59
 70 21 E6 32 BA 1E 86 F0 10 EA FC 49 CE 0E 85 CA
 A3 AC A5 E2 79 0B 23 59 A2 F8 D7 08 D1 32 56 A5
 68 06 8A B7 BC 67 40 A3 AA C1 DB 49 FA B0 ED 68
 6F B5 1E 9B CF A5 B5 A1 3E CD 23 D6 F5 D0 EB 7A
 82 BC 3D 61 16 FE 59 78 47 69 3E 9E D1 AF 2A CF
 8B B2 BE 2F 6C 62 19 64 B4 BB 48 68 24 49 4A B0
 FD 38 9C 7A 89 2B 67 36 9F A3 99 B7 75 8F 24 BB
 44 F5 89 ED 51 C8 28 62 F8 92 93 82 6B 7B 1E 20
 8B A9 34 94 38 02 02 DA 01 91 E6 D7 66 19 BD 56
 D2 8E B5 69 6B 4D 5F F1 FD 46 5E 1F 13 B8 8A 66
 9A BD 7B 8E 23 1B 5B 10 33 A2 B4 F8 8E 77 5A 6D
 30 F3 CB B5 90 FE 3D 25 91 4E 52 88 9B 04 EE 4D
 4E 7F 52 B4 79 7F 26 E5 EA 9B 57 76 10 64 B4 FF
 CB EA F8 98 BA 3E 89 41 50 7F B9 10 A9 CF A1 EB
 57 B7 72 13 64 61 C2 A5 33 3E 04 38 D1 50 A1 6C
 DD 71 99 B8 B5 19 56 43 C6 4A 70 00 AA FF 7F 73
 A3 2D C5 13 E1 67 26 12 F6 84 1C B9 B5 70 0D 80
 27 AC B6 B2 A2 EA 31 81 6E 30 29 BD FB 95 F6 F5
 72 4D DE 1A A8 2E 51 80 4E E6 2A E7 92 BA BD 4B
 83 60 62 64 ED 1B 15 68 7E 9F 8C 0B A6 E8 6A 0D
 37 0F 3C 68 E7 19 5C E7 7C BA 55 54 BB 1D A1 93
 15 7F 53 EA E7 F3 F5 80 7D 58 95 48 2F 32 5E 21
 0A BA 0B 0F 07 9A D8 CA E8 FE 00 C9 3F 0F 74 86
 ED 0D 22 7C 98 72 10 A3 E7 BD 80 8A 69 67 6E 71
 9A 63 9A 0E 40 B7 54 4E 65 EB D2 88 6E FC 45 87
 90 99 DE D6 77 27 B4 15 21 26 3F C7 F2 78 88 A6
 47 57 EB 00 4E CD 7A 67 2B 36 60 4D BF 22 FB 01
 03 EC D2 BD E2 07 7F CD 90 62 5C D8 86 48 FA 29
 77 CC DC 27 B3 28 A1 B3 F7 D9 F4 D8 83 DB 76 57
 4F 45 D7 53 C0 46 F3 F5 ED 1E 1A 0E 11 B3 DA 4D
 5D DB 83 CA F1 9C 0B 13 F9 C4 AD F0 00 A5 6B 4E
 5F E9 A5 6A E8 CB 16 A8 0B E9 35 97 1D E7 24 00
 2A 48 93 0E 41 A4 51 32 41 AF 74 C8 61 ED 5D 68
 1E A7 2A 7E FD 51 EF 2C 8B 56 02 0E 7E 09 E1 F7
 BD 96 B3 5F 67 0A 43 03 C1 41 E3 21 A3 C3 02 02
 D7 C4 8B 63 E7 D3 D4 9E 61 8A 20 B9 37 F1 39 0B
 E8 52 21 BE 97 00 B8 7B 40 DE B1 D1 A4 9A D2 12
 50 70 B6 93 40 BC 5C 7B EC 96 53 E0 67 3B 84 0D
 F1 65 15 9D F9 20 0E 10 03 EC FC B2 54 B3 F5 1D
 14 15 27 F6 D2 95 2D AD 32 47 74 DF A5 26 EF E8
 A1 B3 C6 E5 27 83 C0 B1 AF 66 CF 40 0F 85 82 A9
 71 10 66 47 90 C1 D7 1B E7 B2 18 53 1E 3B 31 7E
 EE D6 F9 6F DD AC 64 25 87 B6 A4 2A 1B F5 F0 57
 0F B0 2A F3 D1 D9 39 A6 CA 83 31 76 78 B8 03 40
 21 49 8A D4 84 C1 98 43 36 5E 35 0F 2B 21 7A 7B
 F1 D0 15 8A 90 A5 89 6C 91 43 61 8A EF 39 09 E0
 AE 28 91 29 D9 C7 CE 84 13 72 62 F4 2C 39 8D 5E
 92 3A 62 68 FD 47 22 C9 EF D6 F8 A9 FE 29 0E E6
 3F B8 B2 D4 67 C5 B2 F5 E7 00 1F B1 39 AA F9 25
 74 83 FF 8D 42 24 7E 21 E0 68 C1 88 A8 CF 41 41
 4A 94 35 DD E7 3D 48 21 FF A6 DD 85 EC 7D B9 1B
 C5 C8 FE 7E DB A0 20 C6 33 A6 12 2C 46 89 8B 92
 52 DD 0F 20 CE FB 8A 82 FD 52 C4 C0 B9 24 8B 13
 9F 01 95 27 F0 B6 13 A2 67 C0 C1 7C A6 57 C5 74
 76 34 33 2D 09 47 06 20 76 EB EB 76 93 54 D6 8C
 7D A6 C4 AB F9 91 F4 E6 EB 81 68 DD 65 D9 D2 16
 52 43 29 29 35 3B 27 71 9E F3 38 89 A2 F8 19 9F
 08 A3 7F 8B 7F EA 9C 5C C1 6C DD 21 2E F5 45 0C
 FF 86 87 53 AC CA 91 4B 2D 41 F2 72 87 DD 67 72
 D6 AD 8C B5 D8 2B D7 FA F2 68 39 8A 38 39 86 B8
 C7 C3 90 D5 75 9B B1 11 8D 3C E4 3C F9 43 DE FE
 36 98 BD 1C 11 00 C7 E0 B4 D3 B3 B0 34 5C AD C1
 94 24 BF 85 AC 09 50 AB 01 EC AC 47 E2 18 6A 09
 30 02 F4 B0 04 49 8D 66 36 D8 AB 15 57 2A B6 7F
 D1 3E 56 23 B5 CA FC 12 98 37 EC 3C 00 30 8D 6C
 00 0F 37 10 66 97 32 60 A9 AE 8E 70 D9 3D 38 AA
 2B 89 1D 3C AA 1A 2C 7F 4F E5 08 8E 9D A2 0B BB
 8E 9C 8A 78 5A 5E 09 5F BE AA 6B 0A 54 2C 1A CC
 0B 2E F3 D7 32 E2 4B 82 BD B6 04 6D DB D6 C2 8A
 7C 0C 1C 97 91 5D D4 A6 9C CD 31 B1 DD 4A 5D 44
 1F 83 CE 76 76 15 77 81 D0 FE 56 97 12 11 14 0F
 93 22 2B CD 50 BA C2 4B 7F 11 46 11 71 62 DC 49
 50 62 DE AC DC 25 06 F0 89 40 03 B1 F2 51 7D 51
 6C 49 D1 05 97 0D 7C E6 24 AD 69 7B 2D 62 08 8F
 5B 63 77 11 C9 ED BA 3C A9 2E D1 61 EA 83 F5 6E
 D4 75 49 F2 72 01 67 81 E3 E4 CA BF D7 72 30 55
 6A 6E 3C 5D 36 00 DB 7F 8A 58 D4 81 12 B8 31 BC
 A1 95 EB 24 72 76 22 29 DF BC A8 D9 1A D6 A9 33
 B5 85 ED F4 27 6C BE D7 27 E6 4D 06 C7 91 88 7F
 D1 29 71 C1 56 07 E0 D2 46 F0 A3 6F 79 46 81 88
 E8 03 AE 31 F8 8C 2D A9 5D 36 79 13 89 87 AB B7
 4A D8 A5 AE 79 AA 2D B8 15 81 06 F9 07 4E 52 95
 DC B8 59 3B E7 79 71 3C F5 52 0D 55 53 FF D1 6E
 C0 C0 27 ED F1 E3 F5 27 6A 4F 4B CD B2 80 9C B7
 3F 36 B9 33 A3 2C 4A 48 03 99 9E 18 F4 90 F2 D0
 4B 2B 6E E7 E3 56 38 AE 13 B2 30 AD 4C 1B 94 D3
 EC 6D 48 E7 E1 27 82 E3 D1 C5 11 33 E7 B2 BE C3
 5D 8E DA 51 18 74 12 E1 D7 6D 6C EF 9C 66 4B 9C
 81 DE 27 5F 20 91 7C 9E C0 0F D5 6A FA DA 00 D3
 B0 C2 91 AA 9A 82 58 01 9A 94 9B 81 AD 2F D2 97
 99 F7 EB 0F 1D D3 9A 50 13 BF 24 E5 52 09 30 A3
 61 05 65 83 A9 D7 8B 61 A9 5F 23 AE 6F 56 79 53
 97 77 75 9C 5A 31 0D A6 B3 64 A4 0A E3 87 F9 72
 DF 24 4D 4C 5B 77 49 8B 4E 45 32 5B CF D9 F0 CB
 36 EE 1D F6 65 98 F6 33 82 7E 39 DB 8D F1 5F 5A
 FA 98 88 7B 65 4C 58 ED 61 D2 29 23 DA 25 6C 2F
 A9 F1 32 BA 48 E4 6C DB DC 16 D6 EF F6 D1 D6 18
 02 CB 9C F5 D3 0C E3 20 14 64 8E 6A 33 FC 61 59
 A5 D1 D0 86 5F 6F A4 6E FA DE D2 35 90 9A AA 7F
 46 29 84 C5 97 BA F8 52 36 21 C2 21 04 40 98 B6
 6D 04 9E D2 69 49 96 96 1B 90 D8 0B E0 A7 CE F5
 D5 4D 33 9A 1A 1F CB 6D 08 BB A0 16 3A C9 C7 E0
 09 05 D3 37 52 E7 7D 16 82 AC EA B1 DC B9 C9 ED
 E4 B3 51 C3 CA 63 01 7B B9 D5 3D 71 E3 1A 28 F0
 25 EC B7 91 71 25 CC E1 AA B4 CB 8D 1F AD 02 E6
 2C 5B F1 EC 49 93 33 71 7B 68 5D 23 33 0F BA 2B
 CF 22 B5 F9 FC 5B 1F 81 F8 84 4F 50 0E 7D 6B 37
 59 0A 36 D1 75 B2 BF 16 1B 56 1F E8 ED C6 C9 81
 31 D5 9B 4F 60 34 45 85 03 63 F7 0D 9E 1F B0 7D
 CB 08 06 13 C3 19 BC 8C FB C3 F1 92 6C 3D C8 4F
 80 DB C5 02 72 8E 69 AC 1D 8E 50 01 23 BC B1 7E
 06 74 4D 06 B2 05 EF 6C 80 1C A5 1C 07 B2 81 66
 6D 6D 16 6C B7 60 7B FA 8C 37 80 EF 57 DC D3 D3
 68 51 11 7C 1E 23 04 9D 8C 31 2F 79 1B BF 04 85
 5B 83 9F E6 EF D3 FB 8E 1C 35 8A A2 7C 87 69 50
 61 74 CD 5E B8 CE 52 F9 8C AB 87 56 3D 21 ED CA
 16 D3 43 BC 45 ED 23 71 F9 13 12 3C 60 CC 63 54
 95 E0 2F 5E EF 73 77 47 3D A6 8F E8 6F 77 DD 9A
 31 C6 D6 7B D5 8F BF 1C 11 EA A0 57 4F C4 44 EE
 39 6E 2C CB E3 24 A0 EC F6 DD 91 BA C5 14 05 35
 32 F1 48 18 CD 51 AB AB 06 AE CD B9 E7 B2 B5 3D
 69 19 06 57 2F 2C 45 CB 81 FA B6 5D A8 5D C1 63
 01 3C 9F 13 2C 06 9A A6 F0 FB 36 6A DF 66 68 F5
 91 6E 8F C7 D8 57 73 C2 97 2C 58 2F 32 D7 07 1A
 14 99 EA 39 74 C7 D1 AE 57 20 99 89 04 83 3D F5
 DF 67 C8 6A EA FC 2C 50 E8 36 F5 1D 63 14 F2 53
 74 E8 42 32 79 D6 EE DF EF 3B FF C6 05 CB BD CB
 63 96 72 99 14 90 8D 90 F8 CA E7 D6 FC BA 42 9A
 5B CB B0 A2 5D 2F 45 8F 2A E9 A8 4A 2F E3 8E FA
 55 DC 17 9D DC 9C 50 D2 0E E2 D9 04 6C 7F 43 70
 C1 9F 68 63 4C D8 0D 49 50 CC 1B ED 5B AF B8 EF
 62 09 41 1F 52 71 D7 C2 45 B4 03 9A 74 10 F9 75
 00 F1 6C 76 19 1D 14 18 E2 B3 86 25 EE 6A C2 20
 2C 48 25 03 03 3A 99 1A 3F 04 27 82 F4 27 63 D7
 0D C3 A3 C8 D2 0B 00 17 BF DA 2B C8 25 E3 AF 5A
 E8 97 CA 30 75 3B 29 FA B7 E9 55 B3 1B A4 B0 97
 11 9A 2F 83 3F F5 E7 FB A4 28 49 9F 59 FE 11 47
 41 89 EB 27 B4 94 92 A0 76 35 0D 20 D6 75 72 B8
 06 AC 3F DA 8E 34 11 3C 7B 23 34 1B E0 DC E5 FB
 4E EF F0 C5 03 94 A0 D2 21 55 7D 28 49 8E 99 FB
 A7 8B 6B 12 E3 E6 33 11 DD D4 BE FB 95 32 69 F9
 7E 02 DC 58 4C 62 25 F7 AE FC 51 44 22 5F 79 90
 58 96 7C DD A1 B8 13 02 BD C6 45 2C 2F 0D 07 C6
 CC A1 E7 B5 1D 87 81 49 2B 47 47 C1 62 F2 6E 90
 E3 71 7B EC 7F ED 82 53 61 9C D8 55 D4 62 27 72
 B5 87 24 99 95 1C 57 EB 79 EA 27 B0 2E 08 9D 78
 F4 B6 7F 16 56 01 04 94 38 CE 33 8F 41 A7 91 AC
 82 27 D2 8A 98 73 71 89 2F D3 1A 76 33 A6 31 7A
 29 18 30 E6 C4 09 98 BE 55 DB 5B 2B D1 56 30 B0
 96 A4 BE D4 53 0B 01 8F 85 C5 25 6E 8A EE B7 56
 2E 9D 5E CB 0F 10 21 A5 D8 E8 8A 49 81 E7 78 36
 DB 82 18 F8 A9 20 FC 1F 33 BD 0A 5C E9 9F 66 3E
 8A 41 E2 77 58 14 68 F2 6A AD F4 B8 85 92 E5 63
 9D 3F CB 5E AB C1 AA 91 BC 10 97 28 C0 E4 22 4B
 15 F9 64 5C A7 50 2E 96 74 9E 64 33 47 8B CB 01
 31 A6 B6 A4 36 BD AC 24 EA 01 85 40 EF 90 F4 D3
 AC 01 D6 FE E5 A0 93 F3 34 3B B8 C8 48 15 7C C5
 A9 91 5D B4 DD 8E 36 F6 66 38 93 64 3F 2D D8 20
 6B 28 C8 FB CC 42 CA 6C 38 23 9B B4 FF F4 A3 54
 56 4B 3E CD D4 EB 8A CD 20 E7 05 8D F6 75 9B 4A
 5F 1F 45 28 F1 F9 FD A0 E1 38 BD AB C6 1F 75 A9
 54 42 66 D4 76 30 97 7D A6 30 50 06 69 EF BE F1
 D5 B2 F9 DE 52 B3 90 0F CA 41 76 23 A0 30 1B B7
 69 F5 F0 1D 32 93 22 FE 7C 6D 44 3B 5C 35 D0 BC
 EB 32 66 B0 53 02 37 FC 65 CA EE 87 C9 DA BA EF
 12 61 B9 0B 42 D4 B9 5B 0D 7C 87 33 90 0D 1F 7D
 9D 00 0F 20 11 3A DB B0 69 25 B5 77 E5 D7 54 AB
 55 EF 05 D6 C8 1D D1 64 50 D1 1C 93 F7 EB 70 13
 86 51 B7 2B 96 EB 66 00 3C 6A 0A 52 F0 74 13 94
 10 E5 E0 99 96 A1 57 31 46 4E 25 D8 70 7C 90 FD
 CB B8 8A C3 31 BF 2D 62 84 0A 5E C2 6A 0E 08 67
 D4 4C 01 51 78 F9 4E 54 AB 42 52 02 86 21 62 E0
 CD E3 18 CC B8 1C 6B C7 B9 C3 C2 68 ED 44 27 02
 98 C9 51 AE B7 3A 5A C0 4A B8 75 2A BB 6A 45 45
 B5 CC FB BF 11 06 1F 5F EE 6D 6B C9 49 BE 32 DF
 A8 5E D8 4B FB 2E 42 0C 97 81 75 57 E5 EC 0A 00
 3D 8B 67 04 8A C9 EC F6 29 BD F1 7C B2 35 AF 69
 26 B8 10 BC F3 8F 5E 3E AF A2 7A D7 99 AD 37 43
 F1 44 3F 8E 3E 5C 1B D2 B8 E4 00 C0 BA B9 31 9E
 F6 13 66 2A 86 15 5B 6B 95 57 5B C1 66 5A 25 02
 3D 4D AC B0 2C 67 09 11 2F 9C DC 7C 5F 37 B9 3C
 25 13 FB 6A 12 92 E8 F5 14 9B 50 81 55 60 87 B2
 10 6C 75 94 3D 55 39 C8 67 E6 06 C1 42 A8 87 84
 1A AF CA 9E 3F 30 79 F0 12 15 E1 10 10 9D C6 97
 38 56 E5 80 55 1B FD 6F AA E2 11 6C 69 55 0E 11
 3F 17 D7 4B 35 D5 F1 B0 0D 81 E8 2A BD F8 32 D7
 2C 89 2A 78 A4 B8 F0 C9 58 C9 28 3D B6 36 55 92
 11 60 9F 69 97 08 D1 07 48 A5 4A F6 57 F7 82 E6
 84 D4 C6 25 1F DF F0 BA 32 A2 7B EF 56 FF B0 82
 9E EB 5D 5B 86 37 60 03 37 69 90 77 76 E9 12 E1
 1A C2 00 6C 23 51 C6 1C 89 4A 73 DB 40 AE B9 BB
 C1 7A 9B F0 26 22 8B 5F A8 6C 2E B2 D7 2A 2A 28
 AC 5B D2 F7 78 B7 26 05 EB 60 AA 62 5A CD 25 D6
 CC 68 45 76 11 52 E1 69 14 59 1A 46 38 4A 7F CE
 8D 3F 0E B6 51 CA 4F FC 3E D5 6A B8 8D 5B 01 FA
 32 EE BA 72 F7 13 1A EB B9 D4 46 4D F2 66 76 F5
 6B 1A 58 4A C6 C2 A0 0E BA AF 1B B1 CD 2E 92 E4
 F2 42 32 4C 8C 37 81 B9 AA B2 5F 6F 0B 0C 07 CB
 43 3B A0 77 35 FB F8 D2 D1 9F A6 C2 D6 DD 1D FA
 43 B3 58 6E 6A 3E E6 AB C1 83 52 1A 92 F9 E8 25
 9D 26 1D 6C 69 98 39 AD 53 19 87 9F 77 D5 43 2B
 20 EC EB D1 13 6F E5 EB D2 35 21 5A D4 81 B5 2D
 97 2F 11 12 71 92 08 F9 DE D0 0D 78 6F D0 74 41
 8F 2D F4 1E 23 5E A8 46 F7 2E 98 05 FF 6A 0C 5F
 4A 41 5E 2F 92 F4 6F 7F 3A F8 4B A0 72 E6 D6 02
 0B 4C 99 17 0E 32 61 07 61 39 E6 73 F4 52 F8 86
 33 88 E9 11 5E 18 ED 3D FF 7C E9 49 0F FB B1 3A
 32 66 47 54 32 BE 6B 5F C3 78 67 3B 55 E0 B0 31
 FF F0 95 4C E9 D3 F5 90 9B 04 8D 53 3B E5 68 D3
 41 AA CD 22 33 22 09 86 E1 CE A4 BE ED 36 62 44
 F5 16 6A 7C 31 99 D0 AA 3F EA CD EA F4 7E 85 7A
 F2 5E 56 D5 05 D8 5B EA 1B D4 75 85 F7 19 8A 06
 7C DC 1F 85 10 BF 19 AF 18 17 D6 11 54 55 E0 04
 61 20 0C 85 D7 DA C9 6A 93 E2 CF 35 D2 2D E6 0B
 5E EE F8 30 3B 29 66 15 3B EC 00 64 16 80 A9 B2
 C4 9C AA FE A3 FF 89 0B 05 83 9E BC 3F 25 CA 36
 4E D1 ED C3 98 F9 39 D0 34 AA 05 04 40 73 67 13
 99 FF 7C 3C D3 7E D0 3D FF 64 0B 0A 16 C1 CB 9E
 A6 99 E9 E0 7E 47 6B 51 C4 36 90 E4 E4 79 53 D7
 29 A6 83 2C 8E E7 CE 2A 18 FD 52 0A 47 D6 1E 95
 A1 14 8E 29 2C 1A 9D DB A3 0D 70 80 1A 3D CD 65
 EB C0 03 E2 11 A4 16 14 FA 1C 1F 1F F4 59 96 B2
 7D 1A 70 AA 48 B5 B7 43 5C 1A 41 E8 D0 06 A6 CE
 E3 8C 95 32 58 69 5D D6 C4 96 2A 2C D2 12 88 AE
 01 64 10 9B F2 AA 39 C8 6C CE 17 43 EB FA 7C 18
 2C 90 DD 60 8B 84 87 94 94 EB 0B 64 5D 30 39 FA
 6F C0 A7 C3 B3 3A 8C 42 43 C2 2A 9B CB 1D CB AB
 FD 2E E6 72 DF 53 C7 1F 34 53 E6 CC 81 92 17 8A
 CF BE 81 43 2C D5 89 75 B4 04 AD CF 63 5A F0 E6
 AF 24 16 A5 30 E4 66 0E 9A 87 4F DF 10 B3 35 73
 D2 0D B0 39 B5 8F 06 CE 12 CB 1E A7 A0 A9 00 2D
 99 B2 72 0F 5B 3B 9D 9F 06 12 30 BB EB 23 F6 84
 89 15 F3 51 81 6F E8 58 49 A4 7C 83 E2 BD 64 76
 26 73 16 F7 84 8E 2E A0 3A 0C C3 AC 5A 5B 89 95
 AC 0D AF 85 CE 3F 19 F9 36 BC 62 4E 22 1B A0 67
 73 DB 99 44 BC 2E BA 36 D2 92 4C 32 AA 9D F1 48
 62 7D D7 5B 61 73 07 18 96 6E E5 5E B0 97 FB FD
 1D F5 F9 A0 9C 82 66 E7 6C EE 2F 4F 48 85 14 6F
 28 D4 83 8B CA 18 A0 87 67 B7 B6 0F 11 39 05 EC
 95 2B 8B 0F 67 5D E8 2A F7 61 6C AD EA 01 A5 0C
 3E 4F E5 41 5B 15 55 32 FC 0A 05 3D F1 27 76 0C
 2B F0 93 6B E1 0B 03 AF D0 F7 F6 35 8A 99 8B DC
 6B 01 31 3C BC B3 FA 08 12 4E ED 3B E5 5C 06 95
 24 56 EE 56 C0 E4 4F F7 2B D4 94 E2 25 17 64 7E
 45 6B B8 ED 9B 68 64 83 17 A8 A8 27 39 EF D1 54
 DF 27 82 78 BD 50 AD 46 49 3F 29 53 EF E7 AB 37
 E9 6D 59 37 87 AC BB C8 71 98 5C 36 64 9E 58 35
 92 44 99 49 6F E1 DD EC 93 FA E9 8D 97 87 E9 3A
 88 73 22 10 5A A7 5F FB B9 AE 05 0E 38 45 E8 B9
 DA 08 AF 81 73 A3 D9 4A D6 15 28 32 08 75 56 86
 1D B5 01 EB 65 94 63 BF B1 1A C6 77 8A CE 83 C3
 39 BB B3 01 33 27 1C 79 01 F6 D1 54 2E AA 37 5F
 F4 48 32 C0 30 4A 05 72 B6 B3 E2 55 0D 58 23 E3
 DC 87 AB D8 CE F3 89 8D E5 58 14 E5 60 ED 64 1E
 B6 42 2D D8 8B 34 CD E4 4D B2 4D 29 54 C5 76 F5
 3C CE AF E2 10 E9 B9 BD E7 EF 10 D5 7F E8 88 5C
 36 38 74 19 EC E9 D9 8C 9A 77 5C 86 AC C4 73 6A
 B1 EF 2E 3A 1A 5D 58 8C 69 43 93 06 7F D1 77 9B
 CE E8 7A 1E 70 3A AE FF 0C DF C0 BE 78 63 73 F6
 14 3A C7 ED 74 7D 9C D9 BD 8E 02 14 A7 ED E9 FF
 A5 F5 D4 4F 17 08 C2 83 58 47 1C 0B AB 4E F3 C0
 06 43 42 F7 38 9C 4A DD 1C A0 34 AF E3 B7 DA 66
 2D 7B BB 1F 6A 24 0E D1 5F 9F 95 48 FC C9 5F 73
 18 E9 97 A1 49 DE 24 A4 3C 51 4B 11 10 4A 5B FF
 F9 E5 6C 67 82 57 8E C2 F0 86 38 B3 C2 6A 3C 7D
 F0 60 FD 10 31 E4 9F 06 33 44 C8 51 9D E6 14 C5
 2E C5 EE DA 00 4D 78 E3 90 CE 51 3C ED 65 1E 2E
 F7 50 82 A9 B3 6D 99 36 71 CB CA AA 30 26 97 B3
 C7 18 26 5B 7D 1C 3F AE B7 4D 5D 62 2F B0 63 60
 1B 1F C9 89 2C 03 6A 75 CA B1 A4 24 CD 23 E6 41
 70 D0 EF 69 B9 5C 0D 62 40 92 23 00 82 35 5A 86
 C2 7C 58 E0 20 D3 EB 03 5D D6 B0 0B 48 75 02 EF
 F8 7C 54 23 73 D9 4A F2 D7 EF A8 EC A1 56 15 28
 A6 F2 3D 3A 1D DF 23 AA 7C DA AB 70 A8 40 3F 1F
 91 87 22 AA 64 54 F8 60 5F C9 4C FC 61 E7 ED 1F
 BC 6C F1 34 BB AE 30 CB 7F 96 25 2D B6 2F 5E 2B
 E5 93 83 48 98 ED AF BE 6E F5 1E F5 0E 27 E8 CC
 B8 DD D0 97 46 50 AF FF D5 82 FE 69 9B 48 0B 1D
 B1 E0 C0 F4 BB 81 DA 03 9F 0F DF 82 52 C0 C2 EB
 5F E2 E1 FA 7A 54 92 C5 DB 1E 36 D7 CB 32 53 C0
 9D 77 C3 D0 71 D6 52 7F E5 1F F7 79 3C FA 79 D0
 04 DE 4E 05 08 0B 3F C6 32 70 AD 3E 79 4C 4C F5
 B7 AF DD EC 23 5B 48 4F D1 4E 52 B6 5B 3C B6 41
 71 F9 64 EA A1 1C 6F 4A FF FC 0D 52 F0 66 3A D3
 9F DA F7 E6 18 28 42 C0 C9 DF 09 CF 46 90 43 8F
 76 25 46 E6 1F F5 FF 53 F1 E6 AE E0 FF EE 25 80
 F0 53 A3 33 C1 FF E0 60 CA 6E BE 56 28 BB 31 05
 EE 61 A2 A0 C6 96 55 D6 88 0D 1F 66 6C 1F A8 B1
 55 5A CA 0E E8 5B 0B 19 44 5A E8 D1 F3 9C B1 15
 24 01 B9 65 94 0B 39 6A 75 01 E9 C6 64 1D 73 53
 E7 E3 7C 02 28 8E 79 1D 01 46 15 A6 64 13 FC C6
 63 54 0E F0 43 13 9B FB 3E 24 17 9B 5B 91 E6 64
 BA C5 9F 7D D7 AE 04 93 9F 70 75 AD 4F 3B C4 FC
 A6 71 FD 26 99 D5 F3 F6 17 BA D5 27 B9 FF CA 3B
 76 CB 82 8D 3B 79 B9 47 EB CC 33 53 2A AF A2 56
 CF BA 63 B0 8E 23 B2 FE 78 80 DB 21 13 41 35 46
 72 98 CC 03 DC 7E 94 2C 16 CF B2 30 52 8C D3 E6
 75 34 66 4A BC 04 70 60 B2 17 57 4C 33 05 0D EA
 C3 15 A1 53 73 C5 49 96 14 08 D5 1D F4 58 6F B0
 5F 17 6F AD 1B 5A 08 FB 3B 1F EB 30 1E E6 1F 63
 42 0E ED 2E 4C 89 0B 18 36 08 0B 0D C8 FE C1 04
 2A D4 99 0C 04 5F 73 6B E9 8A 9E 4A 53 43 E5 6F
 B1 E7 DB E7 07 11 89 19 2D FD A2 D5 54 9E 7A EC
 33 73 7E E4 D6 17 15 7A D6 C1 C5 56 9F EA 5A B5
 00 CD 1A EA B9 BC C3 EC 98 8B E9 96 BE 6F 06 5F
 CD 7C 54 83 A9 D4 AF A6 91 23 48 BC 5A 15 F6 C2
 5E 8B 46 32 0B 92 1A 52 CF E5 C8 E7 16 AC D7 FF
 5D 3A A4 E3 4B A9 C9 E1 89 38 D0 B8 4E BC 8B 68
 EA 6B BA E0 3F 0A 6A 0B 31 19 7F F2 DE DC F0 BA
 CF 5C 93 3E 63 8B 4C 34 39 AC DF 19 97 ED F2 04
 8D B3 47 80 81 36 5B 36 28 81 EA 19 B3 BF 8F 44
 16 43 F1 E8 D7 7C BE 27 AB E5 01 E7 CF 51 D8 4F
 E7 24 E8 BC 94 05 08 AF 3C 40 CF 8B D5 D8 DE 08
 F0 98 8F 2C AE 9D D6 9D 8B 54 50 6C 4B D1 14 35
 67 16 F1 2E 7C 95 DB 00 CA 52 B6 DE FD B2 AD 1A
 FF 1C 05 41 BA C5 94 47 DF 91 B1 FF 60 D7 C1 A7
 B8 8A 10 A9 C3 8A 60 C4 34 3E 6D D9 A6 1F 6D 6B
 97 3C E6 A2 7A D8 EB 30 FD 06 48 7B BC 60 B4 2C
 FE 62 8C 32 01 C1 CC 30 4E 85 95 52 48 08 BB 9B
 3E E6 52 21 1C C7 40 9B 88 5B 26 5D D1 3F 44 B4
 5C F4 60 79 FE DF 73 C5 4F 19 83 27 DD 06 52 BA
 EA 73 6D EC E5 DF 6B 5B 46 A9 EF AC 08 0D F4 12
 97 EB EE ED 19 9D 9A A1 0A CC 42 EB 72 6C 30 0E
 9B EA 0D EB 2B 00 0B E5 24 E1 44 C8 BC DC C5 E2
 8E 89 DA 10 44 61 29 FC C7 A0 E1 F2 D6 E8 69 80
 72 22 70 34 92 68 1D 31 70 74 86 9B 71 C2 03 28
 47 2C C4 56 7F 48 22 38 F9 E3 5C 7D D5 78 84 0C
 F5 5E 94 65 B0 22 4A 3D A3 40 B9 35 F9 0E 71 71
 7B 2E C2 E9 E1 36 CA 43 87 89 B6 A4 2D B6 0D EA
 15 36 11 82 39 E6 06 E8 55 C2 66 E8 50 5E 84 DC
 98 F6 4C 9C 9C 4F 9F 64 12 F3 87 27 A2 63 1E 7E
 B1 1F 9B 86 83 D1 F8 E9 34 44 B9 C6 00 EC 88 CC
 86 69 52 BB 95 EA C1 31 15 C8 E4 16 09 64 10 A3
 43 B6 88 D6 B6 F6 85 E9 B5 8E 75 E7 57 F9 58 DF
 42 94 5B A8 50 A0 92 F8 05 70 98 1B 47 40 F8 F8
 BC 3B 98 9D FD FA DF 3D 74 7F 04 FE F1 71 6F 69
 72 05 56 AE 31 69 D2 1A 67 96 37 01 6B 6E 8E 5D
 8F 0C 0B 76 7A 81 32 28 3D DE 7E 36 3B 83 8E 6E
 3A 71 3B 78 AC D2 3E DF 6D 4A 34 AA 77 27 95 B0
 F7 A5 35 66 5F 1E B9 E2 60 57 20 51 C8 9E F5 C8
 F6 75 7B 7A 81 28 20 DA 58 C7 BF C8 F8 45 8F B5
 10 55 26 62 70 CB 66 C6 F2 CF 8D 4F A5 30 A5 74
 1A 25 B8 8D B7 0A 58 0A 85 4D FA FD 1A 09 7C E5
 F2 E4 DD A5 41 EC 58 6E 8A 5A B7 00 FF 8F 1A B0
 24 65 41 69 DE 63 86 FA 30 3F 02 F1 DE 09 02 16
 AE A4 AF 4C 25 34 48 A7 3E FD B7 6F AB B0 24 AA
 4A D1 18 7F 17 24 00 8B CE FE DC 8A 59 03 0F 8C
 FC 9B B3 B1 FF 24 3D 5F 6D 39 CC 47 A6 5C F4 6A
 05 8E 82 B5 21 37 7F 69 E8 9D FF 7C 66 31 BC 0F
 97 9F 97 C0 71 D1 E6 03 0D AF DB 8E AD 7D 20 76
 43 B8 F1 F2 8A 76 D3 20 07 7E 71 9B 3A 86 14 25
 51 3A 6F 74 0E 67 63 BF DE 93 70 F4 44 C5 4E B5
 45 1D A7 05 29 DC F9 7B 5A F2 A4 33 7B 40 18 BF
 F1 13 85 74 52 5D 35 14 F7 B5 0C 64 CE 88 20 7B
 41 D7 4B 7E 95 D5 03 DA B8 99 FC 4A 2E F3 95 EE
 4A E4 BF E0 82 F0 2D BD 1F 32 D4 FE 62 7D B2 9F
 A7 AE 26 E4 73 34 11 96 08 14 42 85 BD 9B E6 40
 9E 2E 9B 45 06 EA AD BF AC 21 69 69 CE 05 10 6B
 A1 0D 67 1B 3B DC 8F EA F1 BF C7 39 D6 D6 A5 C5
 72 10 86 14 B3 5D 2D BF 81 D6 03 3A 35 6A CC 75
 69 34 F0 1D 25 60 97 C0 5E 89 FA 09 F9 9D A1 E8
 15 BD AA 73 17 97 20 5F 24 F0 DB 35 37 E7 0D 54
 0F 99 9C 57 5E 3A E9 E1 B7 A3 D2 D2 75 3D F9 C3
 5B 26 8B 19 60 8D EF 64 66 E8 48 46 D3 28 25 77
 8C 01 5D 56 C1 B3 19 E5 89 B5 1D DA 01 CA B5 B9
 90 D1 90 F4 58 37 70 71 C5 84 15 13 2E 49 C8 85
 D5 97 5E 74 9F BC F2 B5 1B 8B 4B 11 C5 2C 1E ED
 54 E3 6B C4 35 B2 AB 3C 42 4B 0A 0C 0C 90 AD C8
 A6 92 70 ED 86 41 A4 9D F5 2B 95 2C 19 D5 4C 7F
 94 BF 8D 8F B1 3D E5 99 D4 C8 F9 E7 B0 B8 47 71
 82 40 EF 27 76 BA E4 A4 73 CB D8 20 26 3B 59 47
 9C CF 59 73 5A DE 4B 93 3F FD BC B1 D5 F0 8C B2
 D3 A5 47 9F 18 20 55 E8 F7 4F 91 AE 90 79 E7 97
 46 FE 0D E6 56 52 B4 9F C9 E2 F7 16 19 AD 75 CA
 EB 0D C8 34 3A 05 F5 0C 42 2E D8 DE 1C 67 DE C9
 15 F2 82 E1 D6 FA F0 02 D1 D0 C3 FF 08 A3 FD 19
 D4 50 49 0C 06 44 FB 2C 7E 93 01 A1 10 CA E4 25
 45 25 90 C6 FB 4F 20 70 57 D9 46 2B C9 E1 C1 29
 AA 55 FD 28 0B 47 03 A8 28 16 F6 93 C3 E8 89 10
 79 29 E2 A5 19 34 82 6E 08 9A EC B4 DE E1 6B 4B
 A7 E7 85 47 95 29 C5 5E 66 65 65 68 A6 D4 F7 5D
 34 1D 1D DC 16 93 5A 92 14 0C 26 74 E7 92 D4 93
 0C 7F C3 BF BA D1 9C D3 30 F2 3B 79 3C 39 5B 5E
 5D C6 D2 95 81 D9 21 97 7E 9C 6A D6 72 2F F9 67
 F9 15 1B 75 04 66 DD 13 56 7A 99 1E F0 85 35 39
 16 07 CD E9 DB C0 8B C9 0A E4 9E 30 D2 2F CA E6
 DF 9A A9 D4 98 92 3D AD 0D A5 CB 02 ED DE 13 4D
 B0 D6 96 29 21 53 28 FC 2F 68 A4 6C FB 9B 5F 01
 6A 61 24 4A F4 F7 B7 B2 61 FC 52 2B D9 22 CB 1C
 56 19 0E 28 EF E3 99 BA F9 9D CE 15 B8 A5 60 67
 C8 17 C4 2D 0E 6A 9E 7C 1D 48 7D F4 54 FA 9C D1
 4E 53 41 2A BA 8B 06 69 0D 8B 8F 99 7B 41 2C 0B
 4D FC 10 83 33 A1 0B 4E 73 7C BD E0 78 C6 55 80
 1A C6 69 BF 19 F5 11 B5 2C B5 7D 0B 0E 81 5E 26
 13 4E 76 6C 16 9B 34 86 41 E9 E3 57 16 33 8F 27
 EB 67 64 5B 1F 13 95 F9 A1 2B BC 91 EC EE 0C 43
 79 1C D3 D2 D2 F8 A2 DA 33 0F AB 9C E8 1E 0F 28
 EE 8F 43 65 29 8A D1 BB FE 1E A7 46 E1 20 84 43
 FD 73 DD 1E 05 E8 D9 E2 46 CD 02 F0 13 72 74 F6
 53 24 E9 E6 CF 9D 0B D5 86 C3 52 E2 FB 0D 44 30
 AA 90 59 6A 9B C2 60 18 BE D8 62 AC AB A5 0F 2C
 22 63 78 5C 95 61 3D DD 77 CA C7 B1 6B 19 C9 CE
 D4 29 B5 AA CD 6E D9 38 4B C8 F9 00 17 AD 0D 79
 29 85 BE F1 DF 69 89 E6 C4 6B C0 74 E3 82 E1 28
 E7 20 67 CC 26 CD B5 96 8F 0B 20 3E 7B 17 3B EE
 BC F4 67 55 46 C5 C6 F8 DE 08 F0 CB 8B 60 8F 70
 BE 37 3F 8B 2C B9 3C 9C 4E 03 E6 FE 92 25 6E 7A
 AB 72 B0 A1 8F A9 9B 23 2C 0C 44 68 A7 71 14 34
 58 F0 19 E7 DA C9 A4 79 5D 37 ED FC BB B8 DE 6F
 16 54 4D 9B 29 B8 4E 33 55 71 CB 5C 88 5B 1E B6
 2D 29 73 A5 AA CA D9 A2 8D EE D9 CA 03 6D EF 92
 7A 79 DB 71 84 E4 F7 A7 97 F5 86 41 43 4C D5 BE
 CD B0 43 64 9C 5F 1C 96 FA 36 0E B2 0F 9A 47 AD
 63 AC 20 C6 28 9B 2E 00 40 57 34 EC 39 CA 70 7F
 9E F5 83 32 F5 55 43 9B 15 8F CC F2 F4 C3 FC 9E
 9B 39 F8 7B 47 75 F6 D3 26 C5 B5 0F 98 20 C5 AC
 4C 9B B5 B6 E7 37 22 25 4B C1 94 90 9F 7A CB 6C
 4C 27 CA 16 35 CD A6 A8 97 4E B0 AA F2 E9 2D 97
 D0 1E 64 B4 B8 29 24 54 48 16 40 D7 09 2C 2F 25
 FC CE 17 B6 10 87 32 85 3F 43 8C 1A 09 96 64 03
 66 E5 9A F2 97 2C 52 8D 99 A2 FC 47 EE E4 C7 1E
 D7 96 C2 91 49 0E 3A 50 CC DF 83 1C C3 43 B7 A5
 91 BB AA 54 A2 CE 81 24 B9 EC 6A 0B 77 DC 26 B2
 D4 51 F2 BC 45 AC E5 4D 72 3B 9B 4D E1 B6 17 1F
 90 03 E9 9C ED F8 6B 7B 55 0D 14 2B 57 48 98 2D
 D3 8C 86 B0 A5 8E 23 20 69 31 F0 F2 C8 93 FB BD
 26 75 A3 56 8B D0 4B 38 80 B9 D1 75 B8 83 17 D4
 C3 B1 65 C3 87 F0 BF 73 B5 9E BC 78 31 90 F0 78
 32 A7 01 92 9F 9B ED 51 09 45 7D DE AE 6B 82 CA
 E1 B2 D6 55 82 73 E1 80 9C 23 43 F9 E7 9C A3 10
 D3 1F CA 69 CD 12 C7 90 5B 7D 6A 09 9E A2 DF 52
 1D B2 A9 88 43 1B C6 53 54 80 72 5D 37 55 C6 CE
 F5 03 02 AB DA 45 77 C1 38 5E AE D9 9B D9 FB F4
 2F 3D 43 5A 6E 71 2C A5 87 5B DC 33 27 63 9F F7
 61 67 A8 36 4B C5 06 9F 93 E6 40 68 D6 28 EC 6A
 4D 1F A1 42 A5 C7 3A 10 3C 35 3F 62 66 78 C1 AF
 A5 6A ED 31 F8 9D 99 93 2D E3 54 56 96 3C 6D 4D
 06 C1 DA 3F B6 CC A7 B3 8D 9B 73 15 08 77 89 28
 4C C9 41 C0 07 94 2B BE 3E 1A 52 FA DD 6C FB 6D
 F1 77 2F A3 8F 05 6C 9F 03 A0 FC FA 78 DA 5A D8
 09 B4 21 A3 BB 38 C5 BF 61 86 70 C6 00 C7 22 C5
 06 DC D7 81 6B 4B 70 80 58 7A 64 48 5C 30 74 DD
 DB 02 B4 3D 85 DF D0 7B B4 81 75 7E B9 81 39 9F
 17 EF 97 6A 78 CD 40 83 22 D8 91 A2 7E 88 52 FB
 55 53 F6 A0 6A 74 6C 54 A4 80 68 61 5C D7 2D 00
 15 FB 10 67 9F 9C 77 2C 38 C6 E0 E2 F3 36 42 56
 F3 33 36 9B F3 F6 5E 24 9B DE DC 03 DF 55 30 53
 AF 29 41 91 81 87 83 F3 BD A9 18 5E F8 96 BD C6
 6D CB D5 58 95 3D 2A 88 3D 0B 4F 9F 22 21 61 8A
 17 3F EC EE AB E2 72 A7 E0 BF 12 68 6C 70 5C 3E
 DD 0A 2A 87 5C C5 67 C7 2F 9E 55 E9 C9 52 56 E0
 15 AE 64 55 6F E3 A9 B2 9B 39 CD 5D A0 1C 0D 82
 62 B6 81 6D 10 3C A1 3A 7B 43 93 D0 4A 4E FA 15
 F3 74 04 DB 5E 26 D5 CB 11 7D 71 9D D4 62 8D 41
 BF 6B CD 2D CE E1 3E E4 48 78 CA A9 CC 4C 36 C2
 69 5D 05 30 A7 52 92 AF F0 5A C0 7B FF C1 AB FD
 57 31 00 3D 17 5F EE 64 61 5A 4C A4 5B 91 6B 29
 21 C6 F3 1C 6A 46 CF F5 6C 6F C0 60 1C F7 C3 B3
 63 34 21 FB 66 2A E8 4B 28 DF 6C 20 B2 0E 8A 2E
 44 70 31 8E F4 C5 46 13 06 9F 28 42 8F 1A 52 A8
 8B 17 FF FB B2 49 3C D0 35 9B E7 52 7E 14 FD 81
 4C 9C A9 B7 F1 AD C2 C6 B6 43 38 B4 47 C5 FE 94
 1C CC 33 BF 9C EE 3E 99 2C CA FB B7 34 F6 03 D3
 EF D4 29 F8 CC AF 5B 22 88 BD 3A 93 AF 08 06 EF
 CE 31 B9 44 DF 3C CE D0 CE 5E DF 1F 40 17 73 9B
 64 A6 EF F8 65 32 8C 5B 32 92 64 41 9D D9 B7 FE
* End 1749227961 2954924510