* LTspice Encrypted File
* 
* This encrypted file has been supplied by a 3rd
* party vendor that does not wish to publicize
* the technology used to implement this library.
* 
* Permission is granted to use this file for
* simulations but not to reverse engineer its
* contents.
* 
* Begin:
 0F 4A D6 84 84 36 A7 76 45 6D 77 23 48 8C 1A 28
 0B 6D C7 D2 15 39 13 0A C9 BE 6D 73 4E 46 C9 4F
 FF 30 65 6F 19 98 DF 7E E3 51 FA 6D 68 68 93 A4
 6F 0F 43 34 9C 27 4F 8A 7F 86 70 D8 33 3A 8B 45
 F5 18 C2 6A 4C B1 18 5A C1 6F E8 8B 23 10 74 B0
 1C C0 8E A5 1A 55 59 AE CC 08 12 A8 AC F5 80 E0
 CB 75 6D 7A AF 09 89 FE 55 54 92 0B 12 7A 53 F2
 C2 8C FD 02 71 36 CE A3 35 9B 7C BD B9 37 D0 B0
 C1 5F 15 23 77 7C C5 DB 79 F9 F2 F3 CA 13 00 FA
 69 7A 70 E5 35 E0 16 AD 1F 7A 22 3E CE B3 8B E5
 79 76 10 39 75 A3 69 5F 5D 6A 75 7E FC 5A 47 B7
 2D 47 C2 72 8B 15 9B 5E 0E AD 06 A7 9F 25 4C D2
 F3 3E C5 19 0D AB E2 20 7E 11 F7 C0 06 19 17 A9
 25 DE F4 6C 3D 2C 73 7E F5 4C A0 3C EB 56 19 E6
 D7 28 5F 23 14 95 80 6B FC 49 B2 88 70 B7 9C 52
 48 C6 8A D4 3C A4 8D 6C 0D 37 F5 8C DE 7D BD 99
 11 87 B8 BD 8C 46 D9 36 7D 79 D4 10 00 92 09 EE
 2C FA A7 B3 74 CD A2 58 0D C1 C0 AF CE F7 BE 8C
 80 C8 26 F4 31 09 43 86 41 2F 56 5D 77 A4 F0 85
 C5 B7 49 38 86 FE B6 1C E1 59 B4 07 CA B5 E8 3F
 05 75 35 20 AE 89 6D A1 53 DB B5 E1 B3 A1 DA 11
 7D C0 90 F4 2A 88 85 BF 8F 04 6A 31 92 9B AD E3
 B1 A1 5A 8A 22 DF EF 49 7B 69 3D C4 3B 3D 01 86
 2A 16 20 F6 6A D3 89 42 4E 7C 10 EE 03 B4 E3 32
 B9 2A AF 2B E9 F2 C7 BE 21 51 26 07 2B F5 5F 09
 17 2A 41 D0 83 2C 8C 08 EC EC BC 13 9F F9 D7 0D
 D2 E7 88 C5 B3 57 AD F1 64 6E 4A 0E 63 BC 97 7F
 18 41 7C 62 CE A7 25 19 1F C9 01 61 37 AF A2 15
 86 FF F3 CC 8F 4B 36 BD D1 01 83 80 7B C1 B1 B9
 52 F0 DE B2 B1 6E CA F4 E0 6C 19 36 C9 36 5A 7B
 21 CC A7 A2 02 0D FA 99 C1 C9 F2 88 D9 AC 7F 14
 42 87 4C 44 0C 50 16 00 D3 18 10 F5 2A 39 64 2A
 0E B8 74 08 1F C5 A9 67 97 EE EA DA 71 1A FE 50
 24 B5 F3 49 5A 6F 2B E0 BE 44 C3 82 07 1A 26 A3
 D7 3D 00 D6 7E 77 20 1F 27 FD F0 C2 40 BA 5E DF
 20 10 78 0B E4 48 2C 61 37 1D BD AA B6 FE 89 92
 71 E7 58 7F 75 C6 0B 16 A4 CF 7E B7 C9 61 E2 75
 90 28 40 8B 2C 1E 20 C5 00 75 6E A3 9B 66 02 DC
 0F 8E 0F E6 66 FF 9D BA D4 3D 5E CC 43 A1 0C 33
 36 4A 19 DA 6E A8 BD AE 98 C1 6D 95 CA 75 3F 8B
 F3 C2 39 99 BE E1 65 94 96 D5 C1 AD 82 43 36 1A
 26 EA FB 40 0F B8 D5 9C 14 F0 8F 45 08 73 62 4B
 72 02 EC C1 31 A3 B9 A3 28 CB 04 B0 EF A7 BD C8
 4C 77 F9 B0 92 3D D4 86 5E 2A 43 A1 6E 59 9B F6
 B2 4B B5 CA 16 5A 4B 80 37 F9 90 58 D6 0F 77 16
 A4 06 29 8C FA 33 BA 12 0C 5E 25 50 44 89 6F D3
 E0 38 2E 9A 28 5A 80 3C 64 37 36 78 06 C5 7B B6
 57 10 1A 25 74 2A 3A 10 CC 80 53 4D 1C 43 E7 1A
 04 F3 E3 00 28 68 C7 18 18 DC 8C 63 97 C3 1A CA
 38 C5 C0 1F 98 B4 60 AA C0 F2 43 37 32 FE 67 7A
 E0 E7 65 C0 BA 8C 8B 4C 49 C7 65 AF 1C 0C A8 01
 5E 04 E1 64 1B AF 77 C9 F7 DF ED E6 48 44 A7 2B
 DF 45 B1 D2 BD 48 E7 25 2A 84 A9 65 DA 92 3F E2
 95 F3 5B 76 5A F4 76 F0 29 15 CB 06 1C FE A8 AB
 24 21 AF C7 B9 11 8B C5 56 9A 10 D8 D4 FE 3A 24
 6E C8 FF EE 2E CE 23 6B B3 AD 83 74 7F 8C EC 0C
 20 A1 48 81 CE 95 E4 7F 31 CB 6C B0 C9 E3 95 44
 C0 2A F2 86 67 16 E6 58 6F 10 D8 BE 0D CB 6F BB
 BF 1C 67 F5 3A 2B 4D B6 80 C7 31 DF 47 F6 2E 94
 05 9E 6B 6B DA FA 48 FC 4D 27 16 4E 8C 13 A3 D3
 45 66 2F B2 A0 F0 32 C1 75 F8 E0 4F 39 11 0B A2
 CC 4E 89 12 9A 6C 24 8A 29 33 03 B6 6E B1 59 20
 85 39 26 0B 3D 27 DA 6E B6 AE C6 E0 31 12 92 55
 5C A1 EF 7B B9 3A 38 33 BA 01 BD E0 39 5D D0 1E
 39 70 6D AD B3 1D 6E AF 30 39 4B 55 94 67 A8 B7
 C3 F1 66 3C F9 A4 E9 BB 2D BE 77 A3 95 46 13 D4
 F1 3F 5E C5 1F C9 75 8C BD B7 C3 D7 48 74 B9 44
 BD A4 96 73 C0 96 DE 0C BD 7F C0 58 A6 E7 23 7D
 24 81 92 FA 79 2C D5 E9 F1 37 4C 3F C7 3A F2 98
 1A D5 3E 75 E5 04 83 A4 07 E4 FE BF C0 5E 59 C1
 06 BA E4 5C 95 22 09 83 A8 54 A4 61 0E 27 D9 CD
 A5 F7 84 16 4F 10 07 D4 AE 7F 20 A2 2E 8B 26 36
 0F 6F A1 88 D7 54 93 0E F0 D0 1C 47 C6 3B 9F 70
 07 78 BB B3 EB 5E F3 53 06 E0 DA 68 34 8F F9 11
 BC 42 49 43 E4 56 4F 44 37 31 35 3F 4D DC C4 6B
 CC BF D2 4C C1 04 97 CB EF 93 1E EA 9C CE BE D3
 31 57 39 01 53 2B B6 57 20 1E 13 7E CC 16 74 28
 EB 89 C9 B6 34 FF C2 0D 1F 49 83 A9 49 32 91 B1
 CE 01 DF D7 A8 BA DF 0D C7 57 8F A0 FF 5E 59 D2
 BF 41 69 95 6A 9C 10 4A D2 82 96 F5 CA 07 EB C0
 86 82 D4 F6 0F FA 91 34 45 33 67 B3 31 4A 63 19
 84 B5 4D C8 AF 74 E3 06 EA 1E 3A 2F 63 F7 C5 24
 AD 66 02 42 20 00 80 26 C9 C9 FF 5F A2 E8 C6 EA
 2A 70 A4 7D 96 81 6B 56 C9 5E 44 34 75 56 9F 76
 1B 9F 71 93 22 75 D6 03 36 07 90 96 D1 E6 EB DF
 E5 14 11 1A 26 A9 49 6E 12 31 E4 6F 27 3A 50 1C
 07 57 E6 E9 64 D6 38 7C 41 00 93 C0 A9 F7 04 DE
 30 97 9D E7 A6 ED 01 43 75 C6 84 79 62 06 F7 3D
 E7 CA D1 8A 77 A0 5C 22 89 AC 1C AD AF 7C 44 15
 1A 7B 70 16 0E 84 1C 1E BC C3 B9 45 10 32 DA 38
 2D 10 FC 36 FF 16 A9 EF 4E 3D 02 47 85 FD 24 DD
 C3 18 9B 87 69 B7 6C D1 8C 45 C1 2B FF 49 BB A5
 CC C9 18 B0 8C AC 4D 33 CC 11 18 BE DB DF 2C CD
 75 C3 B7 7E 7C CB D4 21 0C 5B D1 69 42 47 DB E1
 C9 84 4C 9B 1F DC 1B 92 E6 1A B5 7F 25 DA 5A 61
 8E 6C B3 B1 83 1D F0 54 1B C8 DF 48 85 91 54 9F
 E2 42 F5 83 78 4E A9 CE 1D F6 03 93 CC 4E A3 2F
 76 C8 4A F5 49 07 73 10 73 4C 03 FD 29 C9 0D EB
 CE 70 CC E4 FD FF 90 97 F8 FA AE DC 4C 65 E7 86
 6D C0 99 C0 88 E7 3C 6D 33 28 7D AC 80 C5 E3 2F
 B1 5C B6 29 E5 27 EC 6A CC 82 35 68 38 9A E1 16
 35 A1 2E EE 61 12 C6 65 D9 E4 9A 35 0C 8F 24 02
 D4 1A 78 35 A0 2F C1 CA 25 82 65 5A 07 AF F2 E5
 1A 48 69 57 F6 68 C2 06 11 B5 F2 E7 7F FE 95 E8
 EE 09 A9 9B 8F 4F 50 C8 EA 97 3B 61 29 C1 29 D9
 27 59 63 33 BE 77 16 3C 25 A1 7C 5F B2 24 CC 48
 7B 0C 36 9A C6 23 F2 C1 15 8E 5F C2 3D B3 2F 59
 3E EB 00 AA 9E D8 6D FD 88 65 7F BE 31 83 7D 82
 7C 89 25 B8 A5 20 D9 16 BC B6 51 9A 18 63 4D A3
 28 EE A1 0C CD 9C BB C0 B3 5B 1D 45 4E 2B 2D B9
 BE 40 1B 1D 04 A3 D8 FA 29 A7 69 8F E0 62 62 EA
 2F BF D6 BB 2F A6 32 01 1E E5 02 4E 3D E1 82 48
 F2 6C 92 45 EC 73 32 8D AF BD 59 50 AA 9A 48 C3
 BC 82 F2 E9 38 75 EA 59 7F 75 FF 08 BB 5A A8 68
 91 09 A6 4C D2 9B 9F 1E 87 A6 44 D0 D4 D6 D4 A1
 9E 65 01 EB D8 9A 0A 97 2B 0D 1F 82 97 58 A9 35
 77 FD 51 26 87 14 BC 10 8C D2 00 3D 98 58 62 41
 A3 26 FE 2B 50 7E 44 84 2C DC 28 88 A0 B4 44 82
 F3 D6 DF FF 3A 03 F5 9D 7F 8A 2C 8D 8F 50 20 CA
 A9 39 32 51 71 2A F9 1F 59 D7 5D EB C4 77 AA 4F
 F9 04 C8 FC 67 B3 AE 83 FA 64 C4 94 9F 7A 89 E8
 B3 E9 86 5A BA A1 E6 F1 E6 7D 32 D9 39 28 CA CD
 5E 87 10 80 BF AD 1D E6 71 04 A6 FA E4 D0 D2 B5
 B5 33 4E 87 49 81 23 5B 99 A5 44 C7 1D 3E 4C 4B
 3B E1 44 0B 3C 70 66 DE 6D 19 90 33 A0 47 8D E0
 3D 80 86 4C BE F2 2C AE E9 B5 01 8B C9 97 03 43
 3E C0 F4 45 27 AA FA E1 CB 8A 5F BF 2D E3 1D A2
 24 63 3F 55 28 2C 6E 8E 5B A6 CC CB 92 B9 8F 60
 42 CC B3 E7 AC 0F 93 CB 19 2C 4D F7 66 E3 3F 90
 8F F3 97 50 E2 D3 7C C7 48 5E 70 48 BC 73 6E 9B
 8C BD 8A 5C B0 D3 6D DB F8 61 B3 55 BD CD 0B 7F
 8F 37 15 32 19 7A 34 8F DB 5C B5 F0 E6 13 5B C2
 33 8C 5C 2C 32 D9 BD CA 6C B4 95 75 07 F0 EC C5
 42 64 4A 75 22 32 6B 44 AE F5 50 01 63 FD AC 29
 3D 44 24 53 02 30 EF 2F 9D 22 58 27 C3 39 C1 7F
 28 E0 AF 8F F6 BF E5 5F D0 96 7D 01 69 0A AF F9
 05 D0 BE 39 E7 B9 A8 20 C8 94 27 10 0A 01 FF 97
 36 48 1B F4 8E D7 46 E5 30 B2 A8 A6 27 A0 7C FD
 EA DD 92 83 0A 92 80 04 D7 A7 E0 96 C9 7E AD FE
 38 57 2C 31 40 3B EC D5 95 E5 59 28 6E 70 E4 F0
 E3 D1 2F 6C 34 83 2F 12 0A C7 9F 7A DE 97 95 33
 92 36 3F CD D5 38 5E 0A 6C 7F 5D F1 E1 30 78 A9
 A1 94 E7 E1 FF 84 07 DA 03 5F 58 8C 63 21 EC 4D
 3B D9 52 93 6D B4 76 DA D3 5C 37 28 8B 5F 93 F5
 C8 03 F8 A7 AE 72 E9 34 7A 13 3B 6C CB A0 6B 80
 12 46 1C 32 8E BB 5F 83 BF FE 4C 5B 34 1F FE 05
 C7 4D 39 2C FD BB 50 56 14 E5 07 18 69 BB 52 AB
 85 FC DE C5 64 D1 8B FE 15 4D CE E9 9E 9D B5 CC
 9E 78 8A 9F F4 15 5E CE 0A 1E 31 57 1C BF 9B 74
 6F F6 A6 94 91 22 61 48 87 2C 42 37 31 45 53 85
 AC 7A 46 36 31 89 3F 8C 51 8D 54 19 25 90 99 B4
 BD 05 4E 9B C7 05 3F 85 1E DE 2D 5F AA 48 DF 63
 29 E5 B7 FD 28 78 3C 84 9D B6 96 CB C5 55 D6 A8
 A3 C0 D0 76 52 95 D3 02 41 26 8D 09 DC 18 BA CF
 E6 45 32 E4 BB FF 55 E4 74 FE CE 21 30 18 C6 5A
 88 76 52 05 6F E7 FA 02 7B F2 27 FE BE 9A 9B 47
 41 91 91 55 21 ED 50 C2 21 A0 77 D5 98 88 67 8C
 F3 49 DA 12 95 F0 A4 FB 23 97 06 EA E8 A4 3C FD
 A2 A2 C0 84 73 75 EA A4 B5 51 0E 2C 18 99 89 AA
 69 06 0D 5C 2F F2 1C 0F 6B 9A 0F 6B 2B 17 DC 74
 E5 BF 65 89 2D D4 D4 E7 1A 07 5F 41 B9 D4 0F 6B
 E7 89 F9 B5 53 86 4C 00 7D 5F 17 3A 12 91 B9 56
 89 CD F1 FC 38 CE 8A FA A2 46 DD D9 92 15 5E 71
 B3 3A 5C BF 56 CE 52 BC 43 88 25 10 29 2F 77 FE
 47 12 DC 21 17 EE FE B9 49 F9 8C 7E A2 9A F0 96
 FE D4 11 EA BC A1 52 C8 C1 15 8F 2C B8 14 15 DD
 44 BA C7 9B 31 EC 38 23 1E BD 50 AA 5B D7 25 B2
 33 C8 D5 85 8E DD C8 7F 4A 19 E2 E4 C7 11 B3 1D
 09 2C 90 05 45 F6 9E 2F 4E 64 E5 73 8E 34 16 09
 18 03 BC B0 CD 4E CE 92 4B 24 E5 CF 20 DB 81 19
 BB 53 D6 A0 D6 37 2F 3C 75 0E 2A 0C 0B 65 DD 15
 AE 69 EF EA 23 86 82 0C 29 25 19 F1 2D 48 E7 E0
 57 B7 A7 0E 4E 0D 9E 0F AB 74 FE 75 40 29 EE DC
 B5 A3 3A F3 84 9A EE AB D0 8A 14 A5 12 F7 70 AB
 AF D3 44 25 13 1B DB C0 B9 C6 63 AB 81 CB 5C 7D
 5F AD A3 A2 36 4F 7E 45 95 6E EE 40 70 98 61 1B
 15 C4 9D D5 C7 4A C4 89 CA CB 30 5A A4 99 FE BB
 C1 BA 8E C6 ED 40 5C 98 A1 F8 91 BA C6 35 76 D2
 46 52 F8 AD C6 61 E2 BE 74 4E 86 A3 49 2B 75 08
 E3 A3 72 03 B6 A5 8C 1B B2 0E 35 8B AD DD B1 C6
 5F F6 6D B1 A0 6C 4E 2B A3 35 7F 49 8B F0 C4 57
 2E 80 5F 0A C2 C4 3A B4 7E 35 85 C8 10 49 12 54
 7B 72 60 BA 3B 08 70 CA F6 3E A8 8D CF 5C E7 06
 6B DC E6 08 92 F0 2E FD C5 52 54 54 AF AA 5E 10
 25 FB 4B 64 52 C2 A5 53 13 24 53 05 75 98 63 FA
 5A 05 DA 0B 6E 4D F5 18 BA 9A BA C2 7C 04 84 7A
 6D 55 B4 C3 4D 77 E1 83 E8 E9 47 44 E7 57 55 F5
 68 95 11 ED E9 8B 28 FD BA 23 B8 C1 62 D5 12 0B
 FE C3 79 7F 9C 3A 56 54 F2 51 9A D3 DC 7E 14 B2
 52 6B 35 14 AF 53 B4 58 A8 D6 2E 6A 97 10 BB 9C
 1A 9F 6A A4 BE B1 BB D7 BB C6 3C 56 27 79 06 2C
 5E F9 59 A6 19 2F 58 5E 48 49 68 7A 77 63 49 9C
 6F 82 BE 56 55 5F A8 02 E6 C8 41 42 24 62 2A BC
 BA D8 08 EF 97 57 38 72 5D 3F 18 ED 31 8E 2A 18
 BB CB EE B6 9F CE 02 5C E4 7F 2B B3 9F 55 BD C3
 14 3E D2 74 B6 09 F3 8A A2 1B 75 89 59 03 3C 55
 A9 E4 44 DD B6 87 F1 2B 1F 02 43 BF 23 9B FC B5
 10 44 88 88 17 9F 2C 5D DF D8 AD A7 B8 44 69 73
 86 5D CF 85 27 18 60 13 4E 83 F4 7F 0A 29 48 FF
 80 68 F1 51 A2 7D 35 CD DC 97 0D 53 90 19 AC 0E
 8C B8 3F 6A 4F EF 19 38 89 3C 05 7D D1 9C 37 B1
 15 83 F2 41 DA 67 E5 F6 87 33 B9 E2 A7 F9 65 20
 FC 98 43 43 4D 2F E6 D4 CC A8 3D 2B 5B 46 88 29
 07 97 51 83 17 53 37 91 6A C0 FC 56 DE D7 A1 E0
 DD 27 C8 A6 69 62 90 FC B1 B9 50 8B D5 78 59 77
 CA 82 3E 72 64 31 B0 9D 6A C3 9A CD D9 E2 E7 AF
 CC 2A A1 D5 AB 36 38 C7 5F DB 2A C8 39 A4 B6 D0
 DC 2C B3 54 26 93 11 BF 48 2A 65 8D D9 5A 53 EF
 C2 CE 23 49 87 FB D7 36 E5 13 8F F0 41 E1 F3 E0
 B5 BE 78 9F A7 85 C0 D8 67 57 E5 12 CD 9A EA BC
 46 66 96 F6 E4 BB 81 02 3F D8 BA 3C 0A 39 D9 8C
 91 25 D1 2E F3 BC E3 9B 31 B6 AC 3B 49 6C 3E 26
 74 85 4F 1D 13 DA D8 73 53 41 F4 54 30 91 BF 9D
 A7 61 42 63 CE A9 76 C0 70 FE FE D5 00 18 C9 03
 30 A6 BD ED CE 21 FD AA 95 B6 AD B3 2C 2A FB 63
 7A 1F 92 24 D7 26 8B CA 2C D7 93 06 8B 80 B9 49
 E1 23 18 D4 54 FF E2 FB 3B 5A 65 C9 4A 82 7D BD
 31 AA EC 8F 07 9C C5 96 C2 B9 EB A8 C5 EB 24 4B
 B9 88 BB 0E 10 0C 43 26 31 19 28 1D DD 4E C8 54
 35 C7 92 E1 71 08 C7 3E 82 4B BA E8 90 43 7C 8B
 4F E3 AA 14 E2 A4 7A 38 21 76 0E 5D 5C 2E 18 3F
 95 9E CD D9 F7 6C 0F 7C 03 CE 86 C5 96 11 96 F0
 02 F0 A4 4F DC AC DA 91 1F BE 79 92 B2 00 48 E2
 9F 64 03 24 C7 98 8D 8C 2D 31 92 E6 6D 86 5E CD
 41 37 B2 20 F9 15 8F 8A A6 93 C0 4C 53 B7 5E 8D
 EF 9B 9B BF 87 6B 69 03 C0 11 6A 8B E4 19 36 60
 E5 39 02 5E B4 23 DE 85 6C 60 58 E2 92 77 4A 1A
 D5 1F 90 D3 25 C2 F0 B7 B4 0B 9D 57 6D 12 F1 D0
 C6 9E 7E 69 79 E5 EF 6C FB 55 FE D5 DF 10 DB 12
 DF D4 C8 AD 9A E9 58 B1 3C AB 94 1A B4 F0 15 43
 C7 C6 9B 6B BF D5 C5 1A 75 8F FE 74 09 CA 8C 44
 5A 1B E9 0A 2D E6 AB 5C 80 94 AC B4 89 A4 50 F6
 A7 45 F1 6B 49 63 DD 84 04 44 20 D0 1C D0 2E 50
 04 51 1D 4B 60 52 44 3F 63 C9 AB CE 59 91 5B A7
 B2 A6 C9 33 E0 1F 73 B0 E5 0F D8 AA E7 71 7F 80
 EC C5 C4 56 08 F6 1F A5 65 05 70 AB B4 D2 97 35
 76 C1 FB 23 C0 04 21 B2 DE 57 D8 DE 48 E8 0D F0
 E7 86 68 07 D8 50 63 F5 67 90 8A C8 73 21 30 A8
 27 C3 1D 93 0B B1 FF 1B 4E FE 51 F9 17 44 AF B3
 1A DF 28 4C 79 C6 33 23 F0 FA 66 D4 EB EC 6C 08
 91 AC B1 8F B5 54 A3 F8 9A 68 4A 1A AE 83 51 D5
 D2 99 0B CD 3E 17 B9 41 1E 18 9C 6F B8 54 80 F0
 31 03 86 87 32 18 CE 59 68 A1 58 45 30 C2 B5 76
 87 4E B6 C5 48 74 32 2F 5C 99 BB D3 AC 0E 6A C7
 C2 F4 87 08 E9 A5 68 8A 3A C7 AF 42 82 C2 BD AA
 38 68 CC EA C5 05 F1 AB 57 90 0A 04 C7 05 9D 91
 6B 11 76 26 FC 41 FC C5 37 F1 44 F1 3B 94 72 BB
 22 F8 99 2E D5 7C 91 8A 23 E6 AB 34 90 EA A5 B9
 7F 46 C0 88 14 15 2C 36 D0 C5 9C DB 9D 08 77 EE
 3B 73 AF 3A 90 15 83 82 E1 AA 8C D1 36 C6 65 10
 9C 7C 9A 69 75 9A AB A0 78 38 40 EC 14 F3 96 8C
 0D 35 35 44 3A AF 66 4D 5E A2 D9 75 C8 A5 97 05
 7A 4C EE 4B A1 21 4F AB 82 85 A0 9C 60 CC D6 2B
 D9 0E AC 25 AB 20 D9 10 E1 6F 6F 5A B7 28 6F B3
 33 74 C6 AE 7B D7 82 43 4C 1A 23 EE C7 03 C5 3A
 59 28 39 A7 88 D6 29 A9 8F A1 81 B8 04 CD 4C A5
 1F 1C 9D FF ED 8E 3A 84 86 5A 67 DF 5C 74 2D 7F
 3F 4E 55 49 B5 B7 AF 77 BD 71 5A 07 B5 9A 31 91
 AD 1B 8B 39 3D CB 26 28 A1 9E 81 66 54 F5 E9 61
 F7 D7 6E 75 1C 5B 20 4E DC B7 C2 AB BD 3A 83 69
 9E 33 E9 9D 9A 0C 77 03 22 B0 0F 76 80 51 71 EF
 93 30 81 D4 64 8C FB AD A2 6A 61 BD 00 C7 36 28
 6D D3 09 21 64 23 46 4B 73 D5 E8 CF DE F4 10 43
 B9 1A 0C 40 97 E5 70 94 5B B8 4F 83 FA C9 A1 E9
 F0 1A 40 28 22 02 46 3D F3 62 B7 22 99 AF 44 AD
 B0 01 39 9E D4 1B 98 05 48 3B EC 6A 27 46 FE 55
 55 00 0B D3 70 71 CE 57 38 CF EC 19 75 4C 7A 98
 92 DF 99 B9 7A 3C 3C BC 0F 87 27 06 34 9F 2D DD
 17 00 9C 2E C2 65 A3 BB 3F 58 F4 A4 9A 6D E2 FC
 BE BA 0C 30 31 07 32 F7 45 F4 EB C3 D2 1A F0 15
 87 69 03 CB 23 76 BA 87 89 13 07 1E 53 ED D4 EE
 D7 2C 7C DF FF A5 93 C5 B0 1B 15 0D 72 59 2F 5E
 DA 6A 44 F1 E2 B5 C6 40 C8 53 2A AE F4 9E 61 BD
 AA 8D 7A DA 90 9C 25 A0 93 90 75 E0 AD B6 98 9C
 B2 2F 6F 86 13 AC 95 34 7E A5 9F 2C 4F 90 40 B1
 E5 29 12 95 5F A3 1C B5 7F 29 8B 13 C4 14 77 0A
 B5 67 1B ED FE 18 99 98 14 F0 FA 4F E8 70 D7 0B
 07 CB 64 EC B5 8B CD 13 D3 49 6F 3E 8A 2A 14 E9
 6A 3F 71 F5 49 31 A4 54 3A F2 8E DD 59 AF B9 96
 4D 99 D0 71 3F 54 8A 2F EC E4 BF C0 91 AF 6E C4
 B2 B0 C5 98 02 F1 A0 AE 48 C4 D6 E3 9B 69 C9 62
 2B 2E C8 19 46 DE 02 2A F0 0E E0 95 FB A8 5D 75
 27 A4 77 3F C6 71 55 C1 41 5F 88 80 81 0B 72 77
 FE 7E 8A 9B 7E 48 18 AC 30 0F 07 34 F4 2F EF CE
 55 8E 18 7A B2 96 18 35 E9 10 87 8C 00 15 43 FA
 F5 7A 4F 96 A4 D1 64 46 A2 BD E7 FF 78 39 69 24
 89 B9 8E 73 B3 1C 3D ED 46 C7 9B 3C 50 D6 D6 3E
 10 1D EB 2F A4 0A 84 8A 06 46 87 B7 CF DC 60 58
 04 64 82 FA 50 C0 FA F6 FE 66 D9 D8 A2 D0 7F 22
 4F 3C 9B 2E CA A1 3B D5 40 90 92 6E 2D 6F C3 FB
 72 58 5A 5D 3A 0A 85 6D F2 30 C9 A4 3F D9 74 FC
 F0 AC 87 21 F3 91 53 B6 C9 E3 D4 C3 00 51 C6 D4
 FF AB CC 43 7B 6D 27 12 2D BF 85 21 BA 42 24 F5
 47 8F 9F FD 35 B4 BC 9A 43 30 72 BE 13 1D E3 F4
 78 CE 81 11 02 A3 1A 8A A2 2C 0C 70 46 C4 89 BA
 B8 AB C9 84 13 F2 58 61 82 0D 7D B1 C1 C8 5E 2F
 B0 BE C6 77 EC 58 46 FC 48 E7 F4 F0 BF 05 27 F4
 01 99 AB 86 42 3B 0D B9 28 72 8B 48 2F 46 9B 39
 4C D7 28 CE 37 F1 84 D7 05 E2 39 5A EE 88 F2 31
 31 76 B0 63 60 59 5D 46 19 AE 4F BF 4E 7E A7 99
 FE 6A D4 0F 00 EB A6 B3 9B BB 14 87 F3 FE 9D 84
 10 FC 1B 8C 67 34 28 34 38 7B 9E 66 19 2C 90 99
 37 0E 85 C9 03 5D 6F 27 64 D0 3A 7C 43 FF D4 EE
 3C 1E 13 07 77 BA C2 0B 52 6C 19 61 3B C6 DE AF
 E8 61 B1 8C AA 1B DF 7D E7 D2 CC 54 50 FA B4 D1
 7D 27 B2 1E B2 1B 7F F7 B3 D5 57 F3 0B FB 62 F1
 B4 F5 F7 0D 3C 62 EB 5A 64 3A BE 5E 63 FC 55 2A
 D2 75 8E 02 85 59 E2 2A 25 EB 2E D4 E4 E0 84 D3
 B0 17 48 B1 43 75 F3 A8 59 7C 6B A9 CE DD DB C9
 64 45 00 39 2B 9B 7F 02 F6 3C 47 39 07 EF EB 19
 6D DE 3D A4 46 32 87 1E 54 D6 0C FF 26 6B EA 90
 75 2A D7 B7 97 BB 74 75 0D 6A 81 04 DB 27 E4 AC
 EB C0 C2 FC 3A A4 7C 61 E6 2B E1 00 EA F8 CB 54
 42 B8 63 6B 63 94 3A 53 8E 42 56 1E A1 5A 74 7E
 EB D4 B6 B1 00 1F 19 CF 5B 9F 87 AE AD 1A E5 93
 77 72 87 90 19 1E 5D 79 5B 5C BD 53 2B 65 D6 33
 ED 1B A4 78 D3 A2 13 4D A0 39 88 03 DC A6 35 74
 9F CD CF C9 47 CC C4 67 5E 22 01 8D 2B 26 CA 99
 E9 15 96 CB A2 40 37 00 1A 8B 65 F0 A7 13 DA F5
 E0 34 D7 0C C2 37 B4 18 26 C3 2E BA DE C5 27 1C
 07 98 3A 01 E6 EA C5 66 FE E1 87 3E 24 46 FF AB
 27 38 86 61 9E 0B 3C 4F AA D8 13 9A 03 1F DE CD
 C0 08 4B 07 44 A2 16 AE 3E 65 62 A4 E6 03 AC D8
 E6 A4 FC C3 1F 2D CE 52 4C 13 7E 18 79 31 32 05
 F4 EC 60 E6 5C A3 E5 8E BC 04 C0 15 50 7D 87 A8
 F4 FF A7 4F 84 2C 9E 0A 0A 93 3E DE D8 4D 6C B8
 67 77 28 DA AC 3F D6 C2 14 4D 4D 8D 87 DC FF 66
 DF F9 CC B4 A5 ED 98 68 C3 57 BA 5A 39 6F 1D 61
 62 6D 78 8F 7C 8A 24 98 55 AD 75 E4 B6 EE FD 29
 2C C2 55 B0 3A A9 62 A8 14 8E FE A0 24 2D D1 1A
 A3 50 0E BF 67 44 86 C7 C3 8B 39 9B 20 98 F0 D1
 79 DC 68 FF 1C B1 19 BF 0E 3F BF 17 C5 D3 A2 57
 37 EC 4E 3A 1D 85 0F 68 3E C9 4E AC 4C 44 CD C8
 35 33 1E CB 83 09 40 06 48 82 E8 19 08 17 B2 A7
 85 1B 29 56 64 B5 C3 4A 5C 3C 0A 65 97 A3 04 4E
 57 71 EF A0 70 71 74 C3 D2 4E D7 70 2B CF C1 5C
 95 5F 8F 2F B3 5C 9A 09 43 59 16 7D 6E FB D6 7F
 56 42 4E 69 C5 B9 DD 6B DC A3 F9 F8 2F 4C B2 94
 7D 11 60 B8 08 26 F4 67 E7 6E C7 36 74 27 C3 15
 51 D3 74 1E 5C 75 E9 DB 7B E8 47 7C 7C A2 00 51
 E7 BF 9D DA 1E 65 08 CF D8 72 06 56 93 1A 39 F5
 3B DC 41 4B C8 71 A1 A3 0B A9 7D C6 AD FA 75 66
 EC FC D9 E4 C6 5E 51 D9 57 99 7B AB A0 5B C9 D8
 F9 EC 81 B1 9C A6 05 E2 D4 0A 03 1F 62 BF EE D8
 5C 37 B9 BE FE B5 C4 CC 39 4C 7A 14 F8 97 2D 23
 4C 67 D3 1B 89 E3 35 CC E5 8B D2 2A 2F 03 C7 06
 7B CA 57 71 60 9B E9 4A 9B 00 86 70 4B 69 46 FF
 96 09 2A 43 A9 52 9E AD F7 03 3A 75 BD 59 E6 E3
 B7 70 D9 A1 79 0A 7D A2 72 84 DF F6 D0 3B B4 32
 58 ED D5 27 20 9F 8E 6C F6 90 B7 3E 02 B9 5B DE
 48 AB 98 16 AE 23 8D 94 F1 B7 1B F6 CD 82 DE 0E
 99 DD B2 E5 DE CF 34 F9 CE 23 7D C3 08 1D 57 41
 65 8E F5 35 8E C0 AA DB B3 EB 7E BF D2 CE 72 DF
 16 E8 E7 55 2E 3C 6D 89 EB 5F 75 C4 8C A7 18 AA
 C4 01 6A B2 34 85 96 60 0A C9 29 4D 52 A9 44 64
 79 98 00 9C 1F 95 41 50 CB 2F 79 FD 7F 36 DF BE
 FE 9D 2F 99 14 75 B6 24 1A 51 0B 07 20 C0 B9 5B
 8A 99 DE 7F D1 A1 F8 3C FB 96 8B E2 65 97 7D 45
 08 B9 A8 6D 72 7B 8B ED C5 DA 14 27 CE D8 33 21
 5A 1D 07 F2 70 24 97 03 8F A7 EC 86 CD D3 21 AF
 DF C5 B8 4A 35 DF EB 48 D0 D5 1D C4 C9 A3 77 40
 7B BA 2F 58 AD 62 A9 4A 24 32 E2 9B 4A 74 39 E9
 2D 71 84 9B 41 E8 43 E5 8E 84 F4 82 31 ED 43 6F
 85 0D 92 53 A3 78 53 A9 F0 81 E4 A7 52 33 08 C7
 BD BE B0 DC 76 40 23 E8 AA E1 E4 F4 12 2D E8 F3
 F4 10 C4 91 C4 4E AC 5F D4 65 90 FB 5F 98 30 3D
 8E 20 2B A6 2A 6D 55 17 2B AC 11 81 4C 37 A2 3F
 EA 18 F0 00 D7 86 C6 D5 95 A3 CC 8A 22 91 B6 34
 47 79 D0 94 34 62 BE 2E 0E AC 91 F8 5F 0D 98 BC
 8B 1C 52 A5 A0 2C 73 EA 06 44 42 E8 6E B2 0F 50
 67 A4 04 3C D5 E9 83 1E 7B D8 25 FC 5D AD 7C 12
 EE 4C 7D FB 77 42 AB B8 97 C8 B1 67 EF 47 FE 5C
 6F F2 42 89 D6 06 4A 11 20 95 30 C3 B8 45 43 D2
 B2 1C 9C 9C 1F FE D0 03 6A 2A 1A 07 91 5D AD B4
 6D F5 CF 3E 11 66 3F C9 30 6C BC 72 23 15 80 F1
 B2 87 64 D8 84 4B BA BF 90 AE A5 40 CB AF E9 83
 8B AF 9B A6 37 E7 CC EB 46 CB 80 4D B4 9F 13 60
 D8 31 A4 C3 93 88 0D FA 54 B5 5C 4B AD 3F 76 4F
 AD 69 59 B8 E0 E6 56 FB E8 7A 49 02 26 09 E0 3F
 11 BB FF 31 84 1C BC 32 DE BB B7 93 CD 63 34 D2
 3E 26 3B F6 63 DB A8 B9 01 51 76 1D F0 5F D6 CB
 38 9F 28 6E B5 ED 59 8B E0 36 E9 E5 71 BB D3 43
 1E EE A6 3A 2B 96 2C 8E 39 35 3D 3E 05 14 C7 DF
* End 3118331639 598681093