* LTspice Encrypted File
* 
* This encrypted file has been supplied by a 3rd
* party vendor that does not wish to publicize
* the technology used to implement this library.
* 
* Permission is granted to use this file for
* simulations but not to reverse engineer its
* contents.
* 
* Begin:
 F5 8A D6 7B 16 3A 25 CF 8A AC ED A8 4B 16 31 EF
 10 A4 2A 87 50 B4 08 60 7B B4 31 B2 0E DE 39 1C
 62 D9 34 FF 71 18 FA 11 9F 52 D7 59 76 92 E3 81
 D1 5E 2D BD 77 C7 51 A7 1A 43 56 C5 F9 BF 51 FE
 51 A2 22 B7 46 49 ED B2 6B F1 2A B0 A3 91 9E 56
 B5 42 6A 7B 15 A7 A9 F3 06 C0 8A AC 3F DA DF 22
 1C C1 05 79 D7 DE 70 5D 9C 38 88 49 33 A7 DF 89
 9A D4 BD EB 1B 14 F2 C5 73 5F 88 99 A0 C6 F4 5E
 FA 25 4E D4 6C FF 96 AD 4E 92 70 E7 76 92 6B FF
 15 61 FF 00 A1 1B 0E DF 2B 61 E9 27 7D D9 8D AF
 6D 74 E2 B5 61 48 FA 57 A1 3F 19 BF A8 4E 37 A0
 8A E6 FE 8D 27 62 AF D8 00 FC 21 47 9A B3 4C A2
 C6 90 FE 35 E6 4A 86 F2 76 FC 68 3D 71 EF D0 C2
 D6 17 64 67 13 94 37 C7 15 3A 13 E4 D7 DB 84 C3
 52 47 8D 87 1F E5 B8 70 CF AD 89 84 68 23 3B 3A
 C0 4D 34 74 B9 BD 4E BA D9 61 FD E7 E5 BD 51 55
 66 E6 94 97 C8 86 B8 DF AA 20 9E D3 6C FD E2 D5
 05 CD DB 81 9D 95 B1 69 24 13 6F 30 EF 6E C1 24
 23 13 92 BC 95 65 F7 F9 76 31 A4 49 BE DF AF 5D
 9B 15 4D 29 6D 8D F8 6B 6E 7B 2E 20 74 4A A3 36
 88 37 8E 0D E5 E7 DC 2F DD 62 B8 58 D2 4B DA 1E
 95 DF 03 DA 21 E9 3A 08 75 78 D1 06 D4 7E 19 F4
 A1 C1 E6 34 69 94 36 3E B0 50 F2 44 D3 D7 28 D2
 B2 28 C8 08 09 83 64 7B 33 79 BA AC 0E 11 36 FF
 27 A9 0A 0E ED 5A CA 63 B9 82 3B F2 4A 2E 08 36
 D9 A0 9D EE B4 9E D4 AF A1 EA 28 01 B5 6F 6A 08
 DF D6 A6 00 82 8E CD 00 50 D5 7D DD E3 CA 96 AF
 FE 35 2E 11 3F 20 B5 6B 90 F1 2B 22 09 63 DB 4C
 0F 42 F4 D3 5B 80 8C 19 79 89 AD 78 05 65 E4 8C
 4E 52 C4 DD C6 3A E2 EF 05 96 00 2A 18 C9 AF FA
 3F 9F BA E4 61 7A C3 70 21 6C 2A DC D0 71 B8 DD
 A0 74 3E 39 A0 B7 0A A0 0C 9C 9C 97 BB 86 94 64
 A2 8A 31 4C 36 BE BF 13 EC E2 0C E2 61 F3 43 6A
 A7 69 5D 02 C8 20 E7 5B 63 66 65 FF 48 C7 1E 44
 6A 71 A6 8E 55 73 9B 6E 71 52 14 7B A0 19 E7 AE
 D5 53 29 6D 8F A7 9C 52 67 B6 89 8B EF 00 E4 37
 BF 2A 4D F6 66 17 B0 AF 9E F1 18 6C BD 9E 1D 88
 98 A3 55 D6 07 87 EB 47 06 D2 0C 66 EC F3 5F 56
 12 82 EF 66 1D D0 8D 26 DB 2C 71 87 6A 28 1F DC
 DB 13 C8 5E 51 56 48 2D 0A 16 84 1F 2F 07 53 9F
 4D 2E 6D B7 03 87 71 9D 8D D8 29 C0 91 68 FF 19
 76 EB 7F 8E 8D F2 A5 B0 C3 E9 B5 A3 6C 4E 46 F8
 97 D9 0D 2E 87 CE 2B 38 99 22 8E 14 5C 76 EE 72
 96 6D D0 05 32 46 AD 59 63 25 35 E5 B0 53 61 4E
 00 A8 E3 E1 29 18 14 9C 5C 4E 05 A5 F6 27 AE EA
 A8 09 83 78 22 40 BF B3 74 9D 35 F3 E2 C7 7D 98
 16 4A 88 BF 34 66 F8 A3 6B CC A6 77 85 52 97 D1
 66 F0 7C F7 5F 2E 48 89 D7 44 61 60 00 B8 66 59
 20 55 0A 9E DE 6A 50 75 5E 48 7C 72 DA EB A4 1F
 C6 C6 F9 01 8D 51 CE 73 6B B1 A7 38 B8 92 99 A3
 A8 73 4C 95 76 B6 26 DA 36 93 34 50 78 A0 53 3A
 FA 74 01 94 B7 18 6F FB 05 5C EB 04 15 B5 C0 CB
 9B F7 F9 71 6E 7E AC 99 34 10 31 91 21 36 86 9C
 EA A1 04 20 FF AE 6D 70 22 ED CC C8 55 4A CB DA
 D3 B2 16 BF 05 37 8A D4 F4 38 FC FF A6 7A BD 6E
 0E FB 41 3D EB 2D A4 78 B2 9C 24 02 69 AD 27 C4
 F8 AA C7 6D 7A 33 39 DD 33 FC 19 AE FD A9 DD 04
 99 74 25 18 2A 1D CE AE 40 1A C3 E0 2E A3 45 79
 04 6C 48 21 1B A5 06 3A D6 87 73 8B FC 65 3E AC
 C1 18 82 76 12 93 06 10 92 9A 6D AE 9D DD 52 75
 E2 93 2E 84 B5 24 F6 8A C9 87 2A 0A DD 08 82 D4
 7E B8 EF 96 9E 35 2F 80 4A E9 BE F5 E2 89 6C D7
 58 04 19 32 03 E7 3F 3A 75 01 6B 10 BE C5 1B 93
 BB AE A8 72 87 0E C7 F2 59 F2 B4 05 8C 1C 51 3C
 F4 81 AE 36 57 EB B0 D5 B1 42 21 26 55 60 B7 57
 EC C0 9B 87 59 5A 0B 01 A9 E9 45 79 09 EE 7C A9
 26 A2 B7 CB 01 47 E8 35 D6 5F A9 A4 88 48 8A A5
 F1 8B F3 13 54 9A B3 86 32 C3 2C D0 1E 73 7F 7C
 22 71 60 88 B7 04 4C 8C AD 14 0A 25 1C 9B A8 48
 7B 66 B5 4C 8A D7 33 9D 3D 92 C4 FB C5 00 4F 89
 5E 8B DA BC FD AA 61 59 59 FB 6C F5 3A A0 F4 6C
 90 FD D8 20 C0 53 91 7D C2 EF 6F 3B C5 6A A2 3F
 3C 64 C5 DC 92 B7 EB EB A9 E2 2E 42 B6 A7 30 3A
 87 36 C2 86 8B 62 99 72 6D 6B E0 5F 01 8A D4 C9
 52 74 63 09 0F CE BD 78 4A CD 32 BB 59 7D 65 A3
 4D B7 34 81 97 79 E4 07 35 8C 95 FD 7C DF 74 08
 9E 3C F0 C2 DA FF 16 3E 21 A0 94 AC 05 BF B6 0F
 A6 84 AB E7 CB C4 CF 7F 5F FC 30 9B 97 49 00 FE
 AE 2C 62 6E EF 39 36 94 91 8D 2F A0 2B B4 19 2F
 FC FD B4 D2 4F 45 4F 05 F0 74 9F 58 94 23 C7 3F
 4A 48 D2 45 D8 F0 8F 9F 64 D4 C8 43 C5 98 9F 29
 10 6B CC 0A 50 D8 BC E8 06 8C 9D 34 4F DD 4B EF
 EB C5 4A EF C8 E9 80 D9 7D AF C8 57 BF 7E 5F FA
 BF 5C A3 E7 06 1C A1 19 D1 65 76 D6 F8 79 F6 13
 84 0B 34 DE 74 CE 70 22 6E 8B 3D B5 C0 E7 50 18
 40 F0 AE DE CD 8D EF 8F 5D A6 CF F0 66 8E 8A 43
 D3 F1 AC 1A 3E 04 5A 07 AB F2 6F 24 69 32 90 9C
 56 2D 97 63 6B D5 82 3E 30 80 80 28 85 0C C7 45
 D8 B4 D7 B5 00 03 39 4E BD 8A 69 A4 00 47 FE E3
 2B A3 DF EF 16 76 AE 9C 07 B3 09 C8 09 DB F1 08
 F8 90 29 2E 69 02 7D 54 2A AB 9F 77 78 95 7D D8
 C3 7F 81 04 73 76 22 E0 D7 6A BD AF 85 FB 36 F0
 E6 2D 0B 92 0E AB BB A4 62 D5 C7 C0 B5 7E 12 2A
 51 2B F7 BD 44 09 CF 7D 46 F5 85 09 FE 2B 36 64
 DA E0 D6 B9 D0 4B 94 0A 03 B8 10 79 42 56 4E D7
 A6 0D 2D 66 CF C6 54 7E 0A 70 6A 0E 60 DD 57 ED
 95 0F 94 E9 97 D5 F0 93 6A 27 ED B9 0D 32 3F E7
 45 F6 52 98 C3 FE 10 CE 7B C2 48 80 89 7B 37 F9
 39 FC 47 B1 3D 16 3D A5 71 54 81 B9 37 68 57 F5
 B6 60 70 05 89 7C AE F0 10 54 E8 65 D3 7D B9 72
 D8 48 68 39 A9 D9 D7 40 63 08 84 91 B8 26 45 22
 A9 8B 91 C5 E6 6F 70 99 AC 98 B9 11 69 41 22 C6
 3A 10 1D F7 65 C3 18 8A 1D 62 27 E0 65 7C 23 37
 81 0A B5 8B FD 4A C4 83 C5 96 CA C1 DE 70 BA 39
 95 CA 79 1A C0 B5 0D 95 55 8E 48 97 E1 37 EB 80
 B0 C3 01 49 FD 80 E8 2D 62 4D D3 B8 84 DC A7 15
 D6 1D E3 14 2F 0C 9F 8C 92 6E F1 34 A9 D7 ED E3
 19 CB 20 4E F3 24 94 D8 EA D9 2C AF 91 69 07 B8
 10 CC 5F CF E3 72 FF 58 D5 1C 4A B0 D1 30 C1 B5
 2E E6 10 76 9E B6 66 3B 78 26 E2 60 2B 92 1D 76
 AF 95 FC 29 FA B8 42 C9 61 3F F1 00 03 8F C7 B7
 6A 37 1A 11 E0 1F 27 21 2C 27 21 38 D0 64 A6 C6
 71 82 EA 04 97 85 CC B0 3F A5 F3 E5 06 B0 B1 FF
 A3 4B 81 56 D0 00 15 39 7C 7E 38 51 1C 5C 05 B9
 0E D3 87 5E A0 53 60 F9 23 D5 94 9E 21 35 2D 4E
 5F 77 86 AB 75 55 5F 35 E9 FA FB B6 52 A9 14 E3
 96 98 7C D7 DA D5 ED BA B5 9B 67 4B 1A 4D E1 D0
 94 C5 4F AF B1 48 17 79 2A 4B 07 B9 E8 B0 60 C7
 24 E4 AF 8B 0E 30 8B 8C 43 A3 DA B6 B3 2F 8B 82
 DC 8F 35 A1 02 41 52 1F F0 7B B0 B6 FD 67 EC A2
 AF 2E 19 96 16 A1 7E 62 22 AE 88 BD 33 56 0A 2C
 D1 D1 7F AF 1D 5D E1 D8 78 0E CB 7D 45 5B 0B FB
 1A 5B 3D 3E 70 52 69 4D 49 0D E2 27 BA E1 64 6D
 49 12 9B 72 CE 86 10 C7 DB 60 7F 3D 65 B0 78 9E
 5B CB 47 D9 16 15 9C 8F 2A 20 9C A7 C2 89 58 FA
 14 5A 58 A5 71 1B A0 D8 B5 9E 04 E3 5A 00 AE E3
 10 4C 87 8C 4C 46 C2 4D EC 3A F0 74 44 1F 4C FA
 7A 6C 0D 29 F2 4A C1 42 4D D3 3B D9 14 C3 02 8F
 C5 85 8C 62 5F D8 AF 2E F0 1C D5 AD 92 13 04 B9
 B8 08 A7 9D 77 BD 0E D2 4C C1 50 CF 77 6B 81 03
 3C 63 53 13 1A 57 AC 4B D6 51 1E EA BB 5F 7C 35
 E3 60 CA 27 8A 57 31 41 7B 01 A5 8F 04 F6 5E 22
 55 5D 86 F0 F5 60 66 7E 95 E3 5F D8 0E E4 1D 8F
 C0 E0 78 BD 08 63 A4 66 63 9B E3 31 29 00 3F 40
 C9 89 6C 47 67 D8 B6 22 94 BE BD F2 50 7B 1E C0
 B6 73 9B F6 8F FF 60 EA 1A 54 9E 1B BA AD 01 3F
 3F C3 26 C1 E4 07 6F DC C9 92 44 06 AF 0A 85 86
 2D 3F A4 21 92 DA EF D8 8B E8 2F 88 53 72 EF AD
 B8 C9 43 C8 68 EE 8B FA 7B F5 64 21 02 46 64 BE
 9A 7F 8D B1 35 88 71 29 2D 42 0C 49 CC E5 19 3D
 BE 28 D9 C6 F5 9C 5A 4D C9 FD A8 21 3A 49 C9 82
 37 96 51 39 F2 AE 65 39 42 04 96 B0 76 18 BA 14
 83 E7 04 40 FC 2A 23 D6 54 57 F6 38 EB B8 E5 3A
 2D BA F3 A2 F2 DD 06 A7 43 3C 3B 02 66 3D 81 F7
 C4 EC 9F B3 3E E0 03 D2 1E F7 C6 46 12 9D CE 02
 E8 A9 8E 00 F7 BB 6E B8 E9 70 ED 6F F8 FD 24 FD
 24 0A E0 26 D8 AE 2D 3E B1 ED 37 DF 8E 9B 99 56
 64 3E CE 04 BD DC 42 CA 58 B3 8A DE 60 44 7A EA
 BF E2 C9 1C 01 7E 68 78 CC 17 E7 63 E2 D3 C9 BE
 00 AB 65 CC C4 B3 2E D3 15 E7 AD 3D 3B 87 09 35
 BD 0B 3C 3F 74 AC 26 D0 F6 6C 29 B9 CB E3 76 65
 04 49 2B 89 F1 AA 69 A8 E8 5A 64 44 FB C2 ED 85
 69 A8 26 83 36 B5 AD 74 C7 CF 28 EE 60 3E 2E AE
 24 6A F4 A6 67 4C 64 D1 10 F7 0E 07 C6 5B 5C 90
 F4 6E 79 D2 BC A3 EF D9 05 74 08 D9 67 AE 93 11
 A5 7F 2C AE B9 88 52 0A 95 DE D8 D8 B0 30 EB 20
 C0 C2 51 43 9F 99 07 80 63 C5 2B C4 E8 DC F6 70
 65 04 AB C0 44 A9 27 13 BF 21 FA 4E 76 9F AB 90
 B0 9F 63 B1 B3 71 D8 B3 C9 4F 7A 63 CD D1 D3 0D
 3A 57 A3 6D 80 EA E8 5C 12 EF 2C 31 24 31 75 78
 FC AF 18 A1 AB 9E 42 13 B6 6C 56 C7 5E 24 C3 54
 F0 E9 C9 ED 2D 8F DD 7D EF EF 72 8A 98 9F EB C4
 47 D6 10 9F 0D 77 B8 2B E0 32 3F 0F 63 2A 15 D4
 03 1E 7B 1C 4C 9B F2 7C CA 47 C7 4D 2C 0E 62 B5
 59 F3 6C 11 47 DF 2E B8 26 35 EE 6E 3E 3B F0 8B
 70 51 1C A7 FF 34 67 53 BB D3 85 7B 2B FD 90 17
 95 5A 61 6C 24 47 78 41 91 7F 8A 46 BE 8B 46 FB
 29 1C 73 7B 25 71 F3 7E 66 2F AD 0F 4E 62 34 49
 BA 31 FB 82 B8 9D 6D 99 45 8C 2A A6 21 34 42 0F
 E6 11 A4 11 C9 A9 22 F4 3B B3 43 F7 01 F6 03 FD
 9F 8A 26 68 A8 CE 6D 33 EB 1D 3B D1 BF EC B2 A5
 42 C0 3C 06 8C B6 62 27 D8 86 57 4C 70 B1 DF 19
 CA 30 12 64 76 04 CF 76 1F DE 01 D3 EE 7E A6 D2
 1F A3 42 BD 5C 38 9E 02 DC 38 0E FB 16 D7 42 40
 C0 A9 E7 D5 F9 EF BD 49 10 79 ED D4 C0 E2 89 E1
 D8 0E D2 B6 09 63 E1 40 D3 30 18 DC 1F CB 1F 31
 D7 A9 57 05 54 57 30 35 86 AD 64 05 D1 4B 12 E6
 AF AF 01 8C 67 D1 92 37 A9 C9 36 09 DC 41 08 DC
 60 17 59 2E EA 6F 38 4F 5B C8 4D 43 1A 2D 5C 82
 0C 8F 6F 74 DA B9 BE 7C C0 3E 38 1E 1C 77 9A 08
 FB AD F7 B1 35 10 13 1B 2D 5C 1D 4D 1E 7F FD 51
 61 A4 6F 72 79 53 D8 A6 38 73 EA 71 F1 3A B5 78
 FD 59 BB 2F 19 41 F8 7A E9 A8 59 95 F3 8B 7A A1
 F1 57 0E 3A 08 43 5D 51 AF 47 ED 22 8F 18 D8 88
 09 02 EA AB 1C E1 AD 00 11 EE D9 87 87 CB A9 06
 F4 1B F0 CF 7C 7B 6A 5C 1E 8A BC F7 4C 6E 17 84
 12 44 19 8C 10 82 20 22 BC CD 03 17 D3 98 91 1F
 A9 4C F3 29 08 F9 86 EC 6B 2C 2A 42 40 A4 4B 1C
 E9 78 40 4A 65 29 D5 DA 7C A0 D2 63 25 91 00 2C
 21 FD 5E 2F D1 DC 70 72 C9 1B FB 7F D2 9A AF 21
 2C 96 7E A4 C9 E6 9B 05 42 50 10 0D 6B 79 2F 39
 0C C9 44 B0 AA FA 46 72 EB 20 E2 F7 07 6C ED 39
 F8 4E DE 98 0B 50 51 F3 93 9A B8 9B 14 D1 45 3A
 EB 36 7F 3C AB 3C 04 77 0A 75 30 E4 B6 A5 20 DE
 1D B9 6B 6D 67 6F 2E C3 53 68 91 D1 06 33 1C EE
 35 3B 1A 66 63 EF 81 F4 6E 5B 88 F0 49 00 D6 25
 C3 00 00 A4 19 DF FB 79 CA F3 29 24 E0 58 E2 5F
 13 EF 22 A8 1E 86 03 33 0F 93 96 25 14 34 BD 3E
 89 9F 97 05 7B AC 72 D9 70 9D AF 46 45 65 CD 6F
 91 96 BB DC A7 06 13 38 E0 CF CB EA AA 04 4A 63
 20 60 0F 16 35 96 6E 71 EF 99 5B B3 FE 72 04 82
 53 02 F2 A8 5E BB D6 6E 58 E4 0C 74 A5 DF 18 2E
 99 98 15 80 70 66 00 83 1C 16 B0 07 C1 19 D4 F2
 70 29 0C 9C B7 85 84 BD 97 68 E1 B7 D0 1D 94 2C
 5D B9 7E 1F D9 5A 22 7B 92 17 ED A1 D7 2E 05 00
 47 63 C0 5B C7 C4 4A E4 D1 67 3B 84 9B 9A D4 53
 D5 B7 DE 63 20 0C CA FD DA 69 C5 6F 1D BA CF 5A
 EC 59 51 49 18 07 21 2C F1 7F 91 FD 73 99 FB C5
 97 AB 4C D9 13 6E 79 B7 A1 0C CB 79 4D 53 17 70
 38 C9 CE D7 8F 9B 1D 3A F1 4D 96 26 8C 10 2C 0E
 39 B1 67 39 7B B4 C4 A1 05 2B E2 1A 7D 9E FD 5C
 A9 A6 35 60 49 22 F0 F6 26 95 E0 5C 3A 5A 37 25
 E3 F0 F9 60 45 95 97 7A 3B 91 B3 5F 63 56 2B B2
 91 E4 AF 8A 87 B3 33 85 24 05 96 D0 DA 32 4E 6F
 E6 EA 9E 56 CC 3E 69 5A 3C 93 FF E1 65 01 C5 E8
 3A 93 48 DE 78 FD 3A 85 D4 17 E9 25 75 D4 9A 8D
 C6 EB EE 29 48 20 6D 55 ED 98 6C 4C C1 CD D2 99
 AE CA AB A8 41 B4 FB 11 6F 0C 07 C6 64 A2 71 AA
 AF 0E 65 C0 82 E8 BF 64 3F 87 C7 93 75 42 B1 BA
 57 67 45 DA 8B B8 19 B2 36 D8 71 EA FB 1A 68 C3
 C1 E6 05 AE 1E 5E 93 10 8E 47 E4 FF F7 E6 DB 0C
 4B 66 C9 9B B1 B4 B1 29 9C 5F 1E EE EA 09 D0 34
 F6 20 7C D8 D6 21 29 79 06 58 F8 63 A8 5E 95 DB
 64 88 5F B4 F2 9F 34 50 8E 28 5D B1 1C 89 D6 9E
 A3 19 ED 9A 7D 29 46 50 36 72 19 A7 88 80 5F BD
 BC 79 68 A0 B7 63 17 CE 3A 10 97 C4 22 52 7D D2
 4D 2B 8F 6E C1 35 EE 88 69 3B 15 52 18 1F B0 95
 00 CE F2 C4 0A 8A A4 4A 31 63 23 12 1B 78 01 57
 D8 22 5F 4C FE 98 3E 63 0F 55 00 89 23 C4 90 68
 FA 24 11 65 DD 69 18 8C F1 96 19 7C B8 09 C1 7C
 3D 21 27 F0 EA 34 7C 9C D0 BB 4D 2E D6 1A 4C A6
 1F EB F4 9F 10 A9 4A 56 C9 EA DB 70 D3 FD 0D 72
 67 C8 76 A4 93 FC 1D 7F 98 7B C3 A5 8D 12 62 20
 9E F2 32 A1 14 56 4F 20 A1 59 F1 28 5D 10 BD AB
 81 94 A0 33 CB FE E9 D6 E8 A3 B6 83 55 4E 9E 3F
 22 7D B8 A6 BB 30 A7 44 3C EB B1 8C F9 FA 83 58
 4A 87 F6 5D E1 29 51 B1 0C B8 1E 31 9D 64 0D AA
 AE 5C FD 13 5D 6A 86 0E 74 52 58 A5 12 D7 0E 78
 94 9F 80 0F F4 92 D7 BE 6C C2 7D 04 70 DB 3C 5D
 B8 5D CA AA 99 73 B1 B4 BD DE 7A 40 AF CE A3 FF
 FF DD C3 D5 14 EE 71 60 51 1C 9E 53 08 3B C2 05
 EB A9 9A 31 B3 E4 06 4D 66 D4 3B FE 0D 9B F3 E5
 E3 8F 34 5F E9 40 A1 46 D4 8E C4 A3 A3 9B 4A 9E
 B8 70 C2 B0 50 CE 73 40 E7 55 30 13 77 60 5A CC
 B7 DD A7 91 C2 51 28 03 F0 B6 54 F0 36 43 BD 7F
 24 6F 99 49 F5 31 AB 32 D7 32 D7 5E 58 DC 5E 81
 BB 06 5B 04 B4 AB 73 CD 8B 84 ED 6C 58 7A E7 C1
 2A CA 7B 86 42 AB B6 20 AD E2 0F 5E C1 C4 69 60
 B6 F8 1A 27 25 B3 90 D3 F7 08 27 D3 77 6A 9B 55
 5E 50 6C 67 08 85 3C B9 EE 97 BB 16 09 A6 9D F5
 C9 AC C3 99 1F 70 8F EF 8C 6A CD 75 95 1E E3 55
 4E 45 69 DF 33 E7 BA 22 F3 0E 35 42 4B FD FB 37
 71 80 0E F8 C6 CF FD D6 3C D0 96 89 63 0F 73 D8
 5F 78 AC 1A 67 90 86 03 6A 5F 00 49 8A 0B E5 68
 4D 25 65 11 F5 32 F0 8B 2E F1 EF 16 7D B7 09 56
 C4 A3 15 37 DD C5 EB 72 2A 37 95 38 71 39 04 A6
 3D 4B E8 3F 4E 1E 61 6D 66 AA A4 79 12 21 9B 7E
 6A 28 E9 86 FB 66 57 DC 8C 42 F0 8E BD F1 06 B1
 81 9C 8B 78 E4 B1 B4 79 CF A8 99 8F EC 90 F6 0C
 5D 77 CF 1B 51 CE CB 25 26 C2 E1 38 33 6D 05 C5
 8C 86 7B F1 39 14 C1 ED D1 25 ED CB 83 AF 08 3E
 8A 29 1C EE 52 6D C8 47 C6 64 63 8E EB 6F 00 11
 14 64 8A 53 1F CC 26 EF A7 5A 7B 1A 8B E0 81 12
 5C D5 4D F5 AF 2D 7B 5E D4 F7 D8 5A 8B 5D 36 55
 11 0E 5F 0F A5 80 86 E3 AA 7B B2 7D 8C 0A 5C E4
 EA EF 37 14 68 90 BF 1C 70 5C B4 BE 7C D0 54 50
 C6 10 89 04 A7 B3 7E 0F E5 E2 C7 7F F4 10 28 3A
 6E 8F 97 9F CD B4 41 04 7E 5A 57 26 0A 69 00 93
 71 7A 66 65 2D 2C 90 58 F1 C4 2B DD B6 15 16 FA
 65 CA 11 A4 88 C2 2E 24 DE 7B 38 78 3C 7B 4A 9F
 EB F0 6A 1C 2A 50 3A 25 A0 9E 3F EE 0B B8 36 62
 43 B3 A9 46 AE E4 27 AD AA 5D 3E 75 36 4D DD 74
 2C 3B F2 3B C3 0A 7D 87 75 B2 76 C1 4D 88 8E 42
 99 97 2E BD 16 93 87 7B 3A C3 EC F7 B7 A9 39 F4
 6E 88 94 C3 D3 5D 2F 24 08 77 EF 38 1C D5 03 F0
 DD 2D DC 9C 76 CA 0E 9B 09 7C C5 75 DD 00 68 F7
 65 0B 73 01 9E E4 AF E1 94 C4 1A B4 0D 94 17 5E
 1B D7 B3 3C 79 B0 DD E7 16 88 87 B9 B3 95 3C 98
 1C F1 D2 5C 27 1A 20 24 2D 49 29 D4 EE E7 FA 3E
 31 B0 BE DB A5 56 EF 42 49 2C 4C 51 EA 0D 3D 4F
 26 FD B6 FD B9 91 BF F8 AB E1 BF 21 63 FA 94 94
 74 2B 84 0D F6 1A AE 48 DA 2F 7B 97 AB 52 7B B3
 E0 FF 16 BE B4 CA A8 5C 93 71 84 F7 BD 96 56 47
 68 72 EF 37 84 B4 6C 2E 6A 5C BA 4D 48 EF 34 C2
 16 7B E5 62 04 21 94 BB D3 C4 86 83 BE 37 ED DB
 37 8C F1 90 F5 91 B9 04 46 29 8B 6C 0F 01 4E 1B
 12 76 11 86 76 81 E9 5E F2 B7 DD 2A 07 34 9F 31
 12 2E 07 4C DB E7 5D 35 03 E3 94 10 74 FF 6F F7
 04 6E 13 86 F4 66 7D F7 A0 7E 4B 07 77 F5 65 38
 64 43 91 1B 15 CD B2 F7 6D 01 D1 41 BA 2E C2 AA
 79 09 AE 2A CA F9 7E D8 06 9C C1 2F 89 7A 9D 63
 6B 4B E2 1B 2B 01 63 36 62 A9 2B 59 FF 0D 4C B1
 F9 28 39 FC F7 5B 3D 69 12 D7 2A 7A 38 82 4A 85
 20 00 8C AE 9D A8 1B 05 97 7C 1D 50 1F 4E A3 9A
 B8 7E C6 01 F4 85 06 28 89 4D 5C CB FF 7E 64 A9
 03 B9 A8 6B A6 A6 CE 62 41 49 98 89 24 68 D0 2E
 EF 8D E1 53 24 6D 92 65 E5 9F 79 31 B9 64 4A 3C
 74 4D 27 92 52 59 BE FA 03 D9 98 F8 55 EE C3 D1
 06 85 07 1E EF 4A 39 0E B4 37 C3 E1 00 E2 D8 D2
 F1 23 6E 30 DE FE 7A 64 F6 64 6F CB 16 87 30 83
 9E C2 4B 7C C4 B1 7E AF 69 7F 75 46 52 DF 1E 55
 53 7C C2 60 A2 2F DF 9E 6A 65 FA F8 F5 C0 C6 27
 55 FF B5 9A 8B 75 92 C1 C9 B6 EB 2F 7E 03 88 FF
 37 D7 80 A7 F6 33 93 A2 34 4E C2 C2 0E 5D A1 BF
 16 D6 BD 2B D2 80 91 D4 81 4F 90 E1 D5 CD 65 D8
 A7 EB BB 1B 18 52 5B 67 BF 1D B7 AE C3 9A 41 1B
 C0 FA EE A1 1F 50 05 AB 67 5B 5C 87 C4 B6 86 4E
 67 67 D5 96 F0 BD FB F9 FF F1 46 4D CD 86 E6 5F
 B4 46 90 A2 6A 53 43 18 77 17 8F 75 7C DC A8 51
 ED DF C2 5A 09 BC F3 F8 73 BC 7B 12 08 4B 6E 4D
 26 13 BB 2C 92 D4 BB 5F FA A1 70 12 D3 20 CC BE
 5B C1 3E 48 B5 18 0B FD 43 1F C3 B3 28 5F C0 B1
 70 88 B3 5F 89 F9 8E C6 6E 05 1E A4 6D AD FD FF
 6A 95 EB 17 DA 5A 85 0D A1 9D 99 98 78 10 F6 35
 C2 45 03 07 8D 8A BC FF CD 38 3B 1A 55 A6 13 E2
 EA A2 0A 1B 85 3D 14 0D 21 76 C9 C5 74 15 B6 98
 0F 77 C0 E5 0C 42 CB 93 07 33 6A 02 F6 C4 E0 7B
 12 D1 CC EC 79 2B AD C1 C6 F3 05 D9 A5 6D 65 9C
 9F A7 01 E6 BB DC D4 A3 93 3B 81 3B 96 A6 E6 47
 4B F2 AA A1 77 A0 AB 2E 96 5A 5C CF 3A 9C CB D6
 5C BC 23 CC 35 0E 7A A6 3E 01 30 26 9F D5 B3 7B
 2F 9D AB F7 CA 50 09 CB 22 71 D8 B1 3B F0 FF 69
 E6 BE D4 66 1E A0 0B B9 98 15 64 DC 81 6C 56 73
 2E 0B 01 C9 68 7F 64 0A F7 73 A9 9C BF D2 48 4B
 92 86 B2 58 D6 09 69 65 33 3C 12 4D D0 9F D8 E4
 21 C9 E5 38 18 9B F3 90 C5 75 D0 C4 D6 00 00 05
 1A 46 56 47 1C 0B 72 F5 09 4C B8 86 CC 2A F8 C5
 B0 D6 18 CB 04 6C D4 E4 05 F2 A7 47 44 46 33 0F
 5C 53 D3 91 5A 5C 32 81 6B E6 C7 B4 56 16 29 F3
 E2 51 80 86 1B 85 64 71 69 A3 21 82 21 00 0B 2B
 BB 15 91 EF 60 28 05 8F C6 0B 86 6C 9D 9E A5 3A
 88 89 23 03 1D A8 82 91 34 06 7F AE CF 96 8E 74
 53 D7 8C 8C AC 41 8F F9 A8 31 6F B1 44 05 EA D0
 BC 15 13 0D EE B0 E8 0E 20 06 AF E7 46 1C 93 0E
 8A 88 85 35 EE 1A 7A 40 36 82 FB 6A EC 07 FE 1D
 7E D2 12 5D 14 FE 7A 54 6E 79 76 BB DF 76 06 B2
 FD 2E 8A DC 3D 11 4C 58 C7 34 75 2F 47 86 FE E2
 9B 68 85 4B 76 D2 0B 76 4A 2F 2D 96 A0 A5 C7 3E
 2D 58 C5 2E 76 AF 13 2C 7B 71 03 F1 5D D9 43 04
 95 06 AA 61 B7 14 6D B3 83 56 D1 F9 5C C4 7E A4
 88 70 8E FB A7 A6 D1 34 3F C9 0A 97 24 82 99 27
 73 E2 1C D8 9A 5E 3B 9E A0 6E CD 86 55 06 12 46
 41 43 37 97 26 CE 08 72 D7 29 82 68 4D E5 6C 96
 85 D2 AA 95 5B 7F 79 60 3B DD 2D C2 65 8C D8 A0
 68 AD 90 DA 5B 67 74 1B 3F 09 D8 6C 73 55 97 93
 CA 7A 37 77 1A 3B 10 E4 C4 C1 1F 3C EB 49 E0 DC
 8C 0F AD D1 8F C7 B4 46 23 75 C7 7D C6 B0 10 A8
 3F C6 3B 29 7B B2 72 02 D1 BC DB D2 AD AE 58 EE
 BA 7B 5B 3F 2E 50 BB 49 2C B4 A7 C2 EC C4 24 4F
 06 9D DA C1 FF F0 3B 55 78 E9 5D B1 D4 E2 11 FB
 5B 95 A2 9A BE EE 14 0D C2 15 1B E6 FF 89 09 2C
 68 49 3F 1C 89 7E 74 1D 06 EE A8 69 05 61 D8 4B
 BA F1 F8 1A 6B 36 3B AC FD 4E 50 27 4F 9C 56 CD
 B3 9E 84 85 57 F9 0D E7 5F 98 E0 82 03 FB 51 9A
 65 F2 F9 42 2E 63 5F C9 05 8D 2A 47 CA B4 3A EE
 8D D2 8D 20 CC AC C2 55 1C 45 32 D9 E8 5C 8F CE
 00 9B 63 2B B4 42 D6 D2 BB 40 31 6C F4 15 3C 64
 B0 3C 8C 07 13 AB DF 1D A7 D2 A1 84 10 90 41 D0
 94 16 15 7F 45 23 36 0B A0 A1 B7 14 AF 3E 5A 61
 D5 4F 7E 4E A3 9E CF C3 E0 B3 32 5D AD 0F 14 5C
 B0 78 AF EB 3A 1C C4 AE 35 62 84 29 9A 86 5B F9
 C6 1C 98 BB CB 00 CE 59 CF 77 83 97 77 14 45 8D
 CF 8E 75 AA 7F 27 BB 4C DB BB 85 42 5B 4C 14 6A
 F0 F1 B8 50 4C B0 DC C3 EE 38 E8 7D 6C 5E 8B E1
 BE 8F BD E9 9F FE 41 BF 9B 09 53 6C E7 97 4C 8B
 AB 22 1E A4 7F 34 79 75 B5 FA D3 9A 8C 34 F7 6F
 3D E8 D5 BB 32 76 DC 22 EA 7C FA 57 AF DB 1F 4D
 26 F1 87 AF C0 EB 04 67 E3 A2 B4 79 AF C1 40 8E
 2E 9D 46 FA EC 1C 26 9C 01 0B 5F DD 62 69 86 E6
 2E F9 B4 E0 9B AF 28 79 8B 95 AD E1 D2 4F E7 97
 71 98 CE 04 B8 A2 F3 66 3E 28 EE 43 A6 99 14 9F
 EB 79 E9 FC 2B 4B F9 8F 7F B6 C0 A9 23 E4 9B 6C
 B3 29 F3 24 96 20 09 FF 90 27 C7 AE 01 57 59 BC
 77 98 F6 C3 B3 C6 5A C7 87 D8 DF 49 9C 7C FB 04
 89 BB B3 D2 81 AB 79 0D EF 3C 37 9C 18 03 7A F6
 B0 3D C5 FF 59 17 BA 8C 73 51 B6 2D 28 BF 33 40
 55 E9 80 23 13 27 3A 86 22 B9 CA F0 BC FE FE 72
 AD 08 32 2D 52 2B D9 F7 A1 A8 8C 89 A7 E1 9D 69
 46 FD 59 BE 0F 3A BE F5 F3 7C 97 C7 1A A7 15 E6
 B1 A4 6E 77 02 E7 4D AF AB 20 2E EE 83 2D AE 80
 64 98 34 1A 35 88 08 EF 55 99 29 C3 5A 36 BA 33
 50 88 4E ED FD 6A 28 F5 F3 78 5A 2A 98 DE 40 6C
 17 99 2F 3A 18 DA 11 DC EA B9 3A 63 66 41 BC 7F
 BE AB 9A C3 7A AA E5 00 BE A1 A9 B0 1A 7D A5 73
 AA C8 38 7F 20 0E CA 3A 40 84 15 A5 66 6C 92 07
 50 18 51 DC 6B 6A 78 AA 9C 72 63 55 D1 B3 7B 4A
 69 F4 89 B6 B3 99 EC 40 79 15 3A 2B 26 54 EE C4
 4A FD 02 68 3F 95 0D 84 C7 4F 95 F8 3C 43 B7 95
 31 41 CE F1 D5 91 D5 99 F6 05 10 57 06 AB A8 68
 22 6D 8C 03 DD F3 4D 50 84 51 B6 10 23 2F 43 13
 17 63 84 9A 34 EC 5B 82 81 F7 72 12 B4 6D BD 27
 AA B5 40 B0 CB 05 C3 25 1C 4E 67 39 50 BD C8 95
 BD CA 9B 8A 9B C4 93 A8 19 7A 53 CF 1F EE E8 5A
 16 C8 EC 05 CF 5F 10 D6 2E 3B 45 CD A7 B9 C1 5B
 D8 32 FB 0D A0 90 20 D6 5A 8E DE 71 47 86 73 DE
 E1 0C D4 3E 3C 22 42 66 38 5A DB A4 C1 ED 9C E6
 28 E0 75 98 C2 0C EC 94 FC 0D 50 BC D6 08 94 55
 8A 96 12 8C FE 67 E0 A2 84 85 76 4D 24 19 BE 0F
 07 2F EE E7 C7 70 82 6B 7A 74 6D 36 31 40 0A 1C
 4B 6B 3B 3F F1 7E AD 5B C2 79 60 E9 AB 92 15 15
 56 88 60 D5 EA C4 9B 86 A7 8C 34 26 C7 D7 28 E7
 2D 38 C1 92 F2 39 C6 A3 B2 1B B7 2A 3E FC 02 7C
 3B 36 9F 00 49 C5 23 A2 11 98 8F F6 EA AB 32 A4
 00 78 AF 4E 8D F0 9B 32 C5 34 7D 24 76 84 F7 7A
 83 74 33 A9 DE 37 E0 87 D9 89 E1 36 A5 9C 0D 5A
 68 0A 3B 7F 9C 81 3C 7A 18 13 D7 1D 58 F7 50 5F
 69 3D 5A 9A C6 42 E4 FA 68 00 A2 A7 7A DC 80 83
 6A CC 63 54 6B 7E A4 87 B7 6D 41 9B C9 97 83 72
 15 43 D1 9C CF 4B 89 93 23 30 34 42 D7 19 46 87
 7B A6 54 90 C1 C7 48 F0 6D E1 53 52 68 5F 2B 55
 8B 2C E0 85 7D CB 91 07 24 1A 9D 38 EA 83 03 70
 7A 4B 87 9E 42 70 59 04 67 0A 3B B4 50 53 92 DA
 D6 7F DB A0 69 D7 47 EE 42 8C 8F C5 CF 4C BB 4F
 03 F7 8E CE E6 26 77 23 35 46 1E F3 72 D2 89 D9
 E1 59 9B 90 25 3B F5 9F DC 51 A1 82 8E 6B C0 92
 22 28 89 57 FE 39 8D 2B 54 A3 80 6F B1 B8 88 B5
 DD 6F 44 8D 99 E3 9C 93 C5 CD 5D 7A 51 C2 A1 CA
 97 F8 F1 B1 E0 CB 83 F7 31 A4 EC 05 DD 2D AE EA
 3A 23 09 0A C8 60 65 6E BA E5 00 76 4D E3 C2 0B
 F7 FA 64 22 CC A7 DD 61 2F 7D A0 B4 FD 65 5D 5E
 14 70 E4 90 8D 3E 84 86 69 EB 51 47 BC B2 55 FB
 68 87 A1 7B C0 1E B6 97 47 3C 5F 7D 84 15 A7 4F
 F3 16 92 E1 08 AA A0 C1 6F 10 34 87 B1 3B 5D 99
 BF 37 6C 43 88 8A BD 10 FE 27 75 83 F9 B6 41 F3
 E5 A3 FE 41 5A C5 31 60 0A 9A CF 08 1C 3C 9B 83
 74 B6 EF B0 31 75 B7 91 19 FA CC 1E 7A 48 D4 D3
 76 3F 57 C8 3B 43 54 9D 27 50 C4 A7 46 CE BE FB
 54 04 36 C0 5B FF D8 DD EB E3 88 A9 D4 05 6C 55
 AC 38 0E 35 4C 07 C8 B0 3C 41 46 E6 E6 2B B2 20
 E7 ED 87 DA 66 BA 54 38 56 E7 9E A8 38 EB 63 DC
 DC C2 E5 88 DB 33 9E 36 FF B9 65 50 9A 56 95 4F
 BF D2 D9 9A 47 A5 D7 01 4B 31 CB 1A 0F 48 7F 5E
 4C 6F E5 D4 56 F2 36 2A 19 BB 1D 54 D8 D6 D0 F7
 3E 49 80 6D 2C 43 3A 5A 4C 06 60 C4 48 B1 BA CE
 20 56 08 1A 70 35 88 A3 19 D2 7F C8 5A 9C 5E E1
 A5 73 B2 EA 07 18 46 FF 73 81 EE E8 82 C0 08 B6
 97 F3 03 65 E4 B8 8B B6 25 8C 27 B9 3D 8D 16 CC
 F6 5E 7A 2C 5F E4 68 B2 2B 33 D0 3D 43 61 3D DD
 0C CF 32 56 9F FB 30 E5 60 A1 15 40 9B 48 4D 5E
 EC AB F9 96 BC E2 63 1D B7 8C 87 71 A8 86 34 14
 68 FD BC B0 6C 86 D8 6A A9 D4 58 45 86 46 5F 72
 9E 71 23 96 56 00 40 C3 28 17 DB 62 BB 1A AC ED
 9D 45 C3 87 C6 AA 15 D4 C2 7C 5A C1 ED AE 13 03
 22 BE 96 8B 07 0E B0 22 86 96 E2 13 A5 51 AD CB
 8B 03 D6 12 4E C8 F1 79 A1 F4 9B 76 7E 06 EB BF
 DA 9E 0C D6 74 C9 0A 5F FE 0E CC 6F 6C 48 CB AE
 7E E6 28 77 93 09 F1 89 4D 7E CA E5 50 84 83 D1
 0B AE C0 4D 20 28 66 40 F1 B6 0D A8 83 53 A4 5C
 F3 0D C3 32 EE 7F 95 61 F1 DB 69 76 4E 9E 18 40
 3E EC ED B7 B2 11 01 23 E9 2C BF E1 CF BE 32 DD
 9B CC 22 A4 0F B9 A7 87 AA FF 4B 23 95 1E 61 59
 C8 70 F8 68 0D 3B 80 A4 47 C9 A8 CA FD 4D BE D0
 35 35 57 F7 AC 1C 71 3E 38 63 C9 1D DC 84 E9 18
 28 F3 86 74 CC DB 50 37 60 7C F1 67 25 37 2D 3F
 53 54 A1 DA 71 34 A3 A3 9C 7F C1 06 55 5B 41 A0
 DE DA 21 55 D8 33 2A 83 9B 98 BB 29 F7 5A 3B 3E
 2E 64 5B B5 B3 03 33 F9 D7 D5 95 7D BF FF CB E2
 0A E5 B8 F4 3D 14 79 CD E0 B3 E7 46 DB 3A EC 87
 BF BE F5 9C E6 70 B3 FD 30 5E DF 1A 9F 6A 75 C4
 DA DC 78 E0 72 1C B6 C1 98 F8 B5 F4 1A 32 F8 E8
 3B 9F 1C 9D 83 0F E9 00 B0 4E E0 CD 6A 61 B9 DE
 1F C7 42 AA FF ED 3E 43 41 47 D0 4C B0 DE 78 0F
 86 91 C0 52 39 18 18 82 21 B4 2D A3 BD 24 09 DD
 F6 7D B0 9D 89 AB 4D 58 68 D1 3B D4 53 45 D8 4D
 F9 4A 4B 5D 26 CF 00 E3 41 EA 14 11 18 F2 80 1A
 6E C0 89 51 46 CC C4 6D 15 EF CA DF 40 34 62 F6
 51 C1 86 1C 85 46 DE C0 19 43 E8 68 89 9A 20 8D
 EF 94 D5 1C BC 4C 68 0A A9 06 AD D3 B4 05 CC 7C
 F5 D0 CD 75 81 DA 4A 5C A2 49 E8 BD B8 C6 FC F5
 51 C5 BC A0 60 A1 2C 5B BC 4A 86 4C 61 B6 37 11
 2B 12 7F 72 D6 50 05 51 C0 54 2F C1 71 A6 FA 1F
 7B E9 6A FF E6 DD 67 6F 80 E8 A9 CA 74 55 79 46
 1A 43 9E 89 AE EC 84 B8 5B 21 56 5C 8F 65 F8 5D
 D7 1A 33 6D FC 23 32 A2 72 04 7C 6A 5B 88 0D EB
 61 8F ED 7E 3D 93 5D 85 CD 73 4B 18 4A A7 8B 78
 8B B4 6F B0 C6 51 1A 63 A7 80 4F 2D B2 5C 6A 7D
 1E 77 8E 2C 19 61 A6 1D A6 C4 9A 29 F6 A3 62 12
 BE 7A 2B 32 C5 86 14 74 BE D7 ED 09 12 E1 B7 84
 93 56 44 F2 AE 8F ED 37 AD E0 C3 37 E6 2E A5 6B
 22 FB C1 D2 F8 C9 F0 6A 42 C5 98 6F 06 D7 77 19
 1C 79 62 70 88 86 2F 2E 1B 5B BC BE 3A B4 BE 92
 9F D1 0A DC 51 72 D2 DE A4 94 B4 D5 5B 53 03 30
 AC 14 81 6D 4D 45 E4 AD CC 8B 07 55 44 52 E7 A8
 9C A8 E3 CD 8F BC 6F C0 4E 3A 1B 75 94 77 BD DC
 B0 D5 04 A1 76 71 4F B2 43 CB 7A 28 4D DF ED 56
 CE BC 65 78 F8 97 99 29 5F 9D D8 64 97 A7 9D 59
 3F 38 48 15 85 8F C1 B5 63 A8 79 03 78 90 0B B0
 29 58 D8 28 4E 17 A9 B8 5D 09 B9 34 39 53 C9 0F
 38 88 55 36 0F E6 39 06 E4 F7 12 94 DC 13 C7 48
 14 23 58 E8 ED 84 E7 0F 20 5B 53 A0 B3 4A 2C D3
 DA 31 5B AA CE 78 08 03 BE E7 DB B9 0C 81 FA 50
 62 1D 1D 68 C7 46 DB A6 13 51 58 40 97 20 69 AA
 2C F6 4A 14 C7 26 09 82 AF F6 77 6E 4A 4B E7 68
 C1 CE E4 C1 C1 57 6A 26 D5 94 32 46 95 9E FC C8
 E6 66 1D 3C E2 CF CB EC D1 1F 5E D7 61 0F 1E 64
 BD 79 D4 D9 C4 77 CF 21 6B 02 4B 2D A1 54 1D AD
 59 46 3E 0B 17 70 2D 19 6E E4 45 CD 4B 63 47 00
 BB B9 60 72 5C 2E 0D 0D 55 BF 9F 7E 4E AA A1 5C
 DB 08 1E 6F 2E E7 25 AC 57 6A 69 26 3A E4 D4 46
 CA D3 88 8B B1 FF CB 94 23 D1 5F 6C 4F 4E FE A2
 22 AB 0A 1F B9 00 30 9F 94 0D CE 58 6D 3F DA 9D
 F8 A9 5D 62 4D 82 17 10 16 88 0E 7F 52 DC 7C 6C
 FA D3 0D 9C 09 01 88 AF 18 08 3C B6 BE E8 EB 45
 2B C2 FF 89 D4 0F 84 1E 56 48 55 C5 91 95 39 40
 0F F5 A1 78 6C 05 89 E5 5D DD D2 B6 E6 B7 1E BD
 46 5E A6 69 66 86 E3 4E 59 4A 26 E0 A3 A0 3F C3
 DD 33 89 84 4E C1 15 F4 DC A0 4D 37 03 48 30 B1
 97 AA 92 D8 B3 F2 05 86 C1 E8 78 09 1D 11 B7 6C
 54 53 B0 CA B6 29 58 3E A0 8E 82 B1 73 F9 EF DE
 FC 1E 55 90 DD E7 A8 41 C0 79 43 75 78 9B F9 6F
 AB 3A 1F 37 25 17 AE CD 1D EF 9A B9 4B 44 C1 AC
 EE 53 39 CD 65 AA 43 61 12 55 7E 75 B7 91 30 16
 A5 EF D8 15 EF FE ED 0B 4C 2F F8 FD 2E 14 FD 2F
 25 1F 76 1D AB 13 74 59 BD 27 3F D3 6F D3 75 85
 79 AA D9 93 43 2A 68 CA 22 E2 C5 23 0E 48 76 3B
 BC 39 14 DC 4C D8 C0 98 19 E0 6F DD C4 14 D6 AB
 F7 AE E7 13 40 1A A0 2E 3A EE DD BE 55 FE 8B 2F
 F7 A2 DB E7 29 DF B3 BE 6A 39 82 D3 4B EA 86 A0
 04 87 80 CD 26 C7 64 C0 70 9F 07 CF 3E D3 E8 BA
 2A EA A5 E3 D7 4E 78 A8 33 9E 19 FC 6C E8 7C 2C
 A0 D6 EA 97 2A BE E2 C5 8E E6 7A 2A F3 BF A1 AB
 F7 1C 0D 31 5E 0F E4 FA AD 81 46 19 D7 C8 E0 1C
 F0 CE 1E A8 6A C8 4B 92 78 77 E2 34 0C 5D 6B 9F
 11 1B AC 8E 8C BF A3 0C 82 42 F7 24 8F 44 EB BA
 EA B2 B7 2A D1 A5 B7 72 8F 25 72 D2 B7 C2 F9 69
 B6 CD BD 5F 5B 15 E9 5F
* End 3963751352 1033357754