* LTspice Encrypted File
* 
* This encrypted file has been supplied by a 3rd
* party vendor that does not wish to publicize
* the technology used to implement this library.
* 
* Permission is granted to use this file for
* simulations but not to reverse engineer its
* contents.
* 
* Begin:
 B2 98 21 20 54 EC 54 56 A0 76 AF FB 39 73 02 E5
 82 38 B1 70 69 F0 63 58 C0 68 AF 1A 69 91 57 DC
 5C 9D F9 EA C4 75 E8 73 0F 9E F0 7A 6B 89 77 38
 EE 5B B9 3E 1F DB 68 97 A6 3A 91 2C 12 A5 FF 95
 19 51 5D 13 58 62 69 53 4A 72 07 D3 13 AC AB 2C
 5B 9D 99 EF 70 66 EC B6 5B 5C 45 AE C5 E2 19 1D
 1B D8 22 7B 18 CF D9 7B 65 B8 7C DA 40 31 48 63
 4A DC 01 D1 7E FF 9F 03 B3 7A 9E 58 12 64 51 FB
 1C 8E 9B C8 D9 70 1B 44 C2 82 54 16 B5 C7 17 D4
 90 A5 CF DE 49 38 22 49 E7 A9 4B 35 F0 D7 31 95
 B4 75 C0 7D 8F 68 6A 5A F4 F1 69 B5 5D BF 95 94
 8B 6E 3F B9 2C 90 9F EC 16 79 25 0C AA 6F 83 6F
 E8 B1 8E 4E E5 D4 1F 31 F4 87 B1 2B B2 3C 0F 68
 90 61 EC B7 06 1E C2 6E 2D BE 59 D9 DE C7 C1 6D
 D3 B5 22 8D 3F 89 6F E5 E4 0D CE 17 83 A6 45 53
 FA 56 08 A2 73 EB 25 61 BC 6E F2 05 B1 59 26 10
 C4 98 94 3F C0 11 E5 C1 BC 5F 85 9D A4 D3 01 76
 5D FF EB 22 83 FD 1C 20 D9 03 FF 68 87 E5 CA 5A
 E8 30 A5 92 68 A9 9A 78 04 9E 0D A7 8F D9 06 05
 30 37 96 65 E4 65 3E 17 62 F9 F4 A4 AD 5C 87 78
 75 3D D6 D9 10 B4 BA 95 58 2C 43 88 D5 0B DB 77
 BE DB C2 48 4B 68 07 BE 43 47 06 B6 1C 95 C6 37
 C0 88 BA 10 5D 08 E2 E1 B2 47 8A 26 9C 0B E1 3E
 91 58 B8 B5 EF 95 07 B7 36 76 CD CE 02 C2 CC B2
 C4 05 D0 0E 1A F7 58 F2 AF 41 88 7C 69 B4 82 07
 3E 0F 8A B8 09 37 EA BA 81 27 4B 1E 63 69 5F 8F
 BD 31 7B FC 01 C6 0B B4 61 E0 5C A8 2B 5A 75 06
 D1 FF 6B 07 AA D8 E1 95 3A 6B CA 17 C9 0C E2 9D
 06 13 29 ED FB 40 21 B1 6B 5A 49 7E 65 16 52 AA
 6B E3 E4 07 0A 10 52 74 62 03 C9 0D 3B B4 53 CB
 64 00 A1 90 4E 2F 58 2C 53 A3 94 21 3C F9 4B 5F
 93 1A CE AE 6B 12 E2 00 69 34 FF EF 0E 79 1C 92
 AF 51 FA 63 24 3F 70 DF D5 02 C5 67 A4 1C 4B 2F
 8F FA 2A 4F 32 06 F3 31 61 EB DF EA 21 4C 32 B2
 66 9D 7E EB B0 26 DD 6F C5 40 5A C5 D0 B2 D3 EC
 7D 52 BF 5A BA 34 B2 4C 54 98 00 7A 80 36 79 A0
 D4 EF A0 CD CB B5 97 6B 7C A7 99 A9 F1 FA 87 A0
 A1 B0 24 C1 2E D8 75 EB 26 71 60 5A EC 84 8E 44
 9B 94 2A C6 51 38 00 42 E3 01 3F A8 16 31 C2 AB
 13 A7 A8 5D E1 6F 43 21 56 41 0D EB 92 EE B9 36
 8B 0A 7C D4 F3 11 B8 DF BA 0C 8C 1B F6 2F 20 88
 0C D9 A9 3F D3 68 CD 5B F2 8C 82 CA 33 5B CE E2
 47 41 46 EF 5B 30 1C 77 2E 10 77 DB 13 56 B3 CA
 8D 02 F4 84 92 F3 CD 11 BD 49 F0 0C C1 4A 44 D7
 89 B4 5F D3 8D EB 82 FF 00 65 B9 E3 5D 8E 66 BA
 3E F3 EB 0F 33 58 2D EC 93 0C F7 CD 3F C4 AD 29
 F5 6A CE 99 E6 38 FD 79 CB ED F8 E9 FE 42 4D 64
 54 F4 70 3C 8C 28 31 D4 7B 74 DF BC FC 1C 47 A7
 75 95 73 50 4A 39 2F 9B C1 07 EF 7C D4 67 30 0C
 0D EF 1B A8 38 04 9A 6A B6 91 11 E0 0E 39 1F 2D
 44 1E 08 A4 94 7B 86 5F 74 1A 7A 57 E9 EB 9C 25
 8A D7 67 94 F7 81 E2 47 DE C9 32 18 58 18 F7 41
 71 5B C6 FC 30 D7 F9 0A B8 2C 5A 0C 05 F1 9E CA
 E5 F0 17 E1 26 85 F3 6D B1 EE 30 A4 17 22 CF 3E
 C5 57 89 9C 9A 75 76 FD 10 F4 30 9C 83 80 C5 45
 DD 9E 70 95 DA DF 0A A6 26 07 56 01 A4 BE 68 1A
 E2 8F A0 30 04 C2 F4 6E 9E D9 3F F3 02 43 08 34
 38 8E 66 62 D0 84 C3 B0 29 01 5A CF 70 9D E2 EC
 F0 9E E1 B6 C3 11 DE 68 C1 1A D8 FD 70 88 A3 AF
 A0 D0 80 C0 B9 5F B6 62 98 93 3D D1 64 8D BC 18
 81 90 4D 41 52 8B 02 19 C0 26 3E 5B 95 A5 DD 8C
 6F 2D 87 E5 B6 90 A1 A4 E8 78 3E D8 8B 12 2C 43
 7F 6D 5A EE 8C A0 C0 0C C8 D0 B1 AA FB AB C5 2F
 52 50 89 3B 35 F9 9A 80 E0 81 CA 9B 5A B3 3F 5F
 CB 95 50 F0 78 4A 36 E6 49 34 89 70 AB 17 1B 27
 2D 7B D7 26 AD DB A3 84 67 53 E6 16 8B 0B 81 72
 B6 6B 0B CC 12 CD 28 1E AB 25 98 24 58 6A 33 F9
 01 D7 31 8D 1F 07 C8 04 22 C7 5E DD A6 C4 CB B5
 7A 57 77 94 D2 56 FB 83 C2 4B 65 8B 33 5F 36 86
 C3 73 FC 03 56 49 D0 12 14 E2 EE 74 5B 23 A8 AC
 0D 38 18 0A F9 65 BC 3B 84 CA F8 AB 82 DF D2 B5
 38 D7 A0 67 6F 08 50 B0 6D B0 2A AB 83 1C 32 6D
 0D 52 01 2F 96 CE F6 5C 9E 7A EA A2 40 69 5E 37
 B2 8B 72 45 63 D8 0F 18 E9 52 A1 98 80 8E 3E FF
 8B 63 C2 F3 12 EF 4B FB D9 9B 88 62 4D B8 23 99
 43 63 73 F1 E5 1D 03 C5 19 23 EB 3E 3E 69 08 A5
 71 9C 01 16 6B 62 D1 47 69 32 6C 4F 9A D8 85 C9
 47 93 34 39 48 FC 4D 3B 8F 64 E7 A4 D0 02 E7 A8
 69 16 BE D3 FC 9E 2C D7 5D D3 09 57 10 64 08 C6
 96 76 C4 21 F1 EC 8D AD 2F EF 10 A7 19 09 DE 04
 D9 01 E1 94 3B 5B 38 EA 12 10 0C 84 58 9C 0D 40
 DD AE 0B 3E 33 4C D1 78 F5 2A 00 A4 62 18 6D EA
 EF 15 A3 AE 5E F0 FF 86 29 61 FA 3B 91 33 79 7C
 40 07 22 34 3C DA 9F 04 4A 9E E1 01 BC C5 9B 11
 04 A4 61 67 DF 78 64 05 29 63 F8 E5 91 07 04 85
 E9 0B E2 65 15 40 AA 7E 9F EC 35 02 61 83 3E 00
 89 A1 72 B8 39 83 AF F2 F8 F5 91 50 3A 38 F9 01
 AE 04 B8 A7 6B 14 8A 43 F2 D2 51 A2 A9 C6 ED 61
 7B 42 D0 36 FF 44 80 A3 6B E2 66 AA 7A BB 68 B5
 9D 0C 72 68 9F 36 76 FA DF A7 F8 B2 A3 7B 0A C3
 DC C1 B2 1E 50 A3 42 25 C9 76 18 1A F1 A1 00 BF
 DA 05 23 7D 15 4A 57 F5 16 77 11 B3 2E E9 EB C9
 96 16 CC C1 3E 30 18 5B 5A B6 3A 64 E4 41 E7 D7
 E0 7A 5A 33 75 B7 6F 26 DC CE F6 46 73 88 7F FC
 FE 93 50 C7 2A 5B FF 11 44 F9 9D C7 4D B0 75 E1
 40 53 80 1A 58 67 08 F2 C9 53 E0 D6 AC 94 48 53
 73 26 A2 DD 82 F7 09 AB 4A 15 43 18 B6 B6 AE 30
 27 0C 4C D4 19 B1 81 09 81 FC 14 9E 36 C2 D8 0F
 FB C4 77 BD 40 55 90 C6 82 3B 19 B0 EF B1 BC 47
 37 60 1F BC 61 BF F1 80 13 CA EF 2F 4E ED 97 F3
 99 36 89 DC BE 91 53 08 0A 22 BF BF D8 28 5A 49
 CD 0D 43 F7 82 3F 0F E7 96 EA 07 F0 D9 A8 CC F9
 58 07 81 5C 2B BB 27 29 A7 08 BA 8E EC 92 B5 04
 79 38 82 79 BC F4 62 73 A3 D1 65 A5 B9 74 BB D0
 C3 8A 6C 4C 4E E0 6F 50 89 D7 3E FF 4E 53 AC 24
 C6 81 0A 9B 00 51 E3 3B 76 92 12 FC 58 1A 0A 00
 87 8B F5 70 9E F8 17 D4 97 D9 FD 6E 69 51 E0 ED
 77 70 81 6A 5E AB 9B 66 99 4D 5A 4B A3 7A B2 D8
 D5 29 A6 C4 83 D4 71 D4 BE A8 32 35 F9 26 B1 10
 E9 3A FC FB 27 25 F0 B9 BF 7C 56 33 46 52 59 B4
 9E DB 42 EE BD 5B 3C 24 FD 20 03 EF 9B FE 37 33
 91 66 2B F6 BE 61 05 C7 8A 1A 3A 3D E6 41 37 D5
 9F 7A 20 15 F6 74 FB 83 83 E4 31 64 14 7F 63 26
 B7 61 F1 CB CA 88 BE D2 3F FA A3 41 B9 A6 6B 56
 12 83 1C 10 70 4A D1 A9 5B 7B 00 83 D2 27 DE 63
 09 A3 38 D6 AE 64 B3 D7 39 0D FC 5B 07 6D 9A D2
 45 DD 76 75 47 08 BC A9 38 A2 BF 5F 88 08 B3 8F
 D9 C5 EA E8 1C 6F 95 FF 29 55 C5 33 D0 3D F2 D8
 98 43 E6 52 32 DD AB 01 F1 04 7D 05 A1 34 57 1A
 9D 36 5D 91 FB 90 39 9D C7 DB 4A 1E 1B D5 D2 FE
 79 C3 02 67 CC 0A 0E 21 DC 88 A2 B5 AB 10 9C F3
 1A 9E BE 92 F8 0E F3 55 B4 C9 A9 D6 09 D5 2B BF
 4A C2 5B 3F FE D6 D5 B4 52 4E A2 B0 E1 87 97 34
 DA E6 7D 77 67 0A E4 CA 0D A9 9B DE F0 44 20 56
 94 42 0B 65 0C 07 97 84 97 72 AD E1 E9 A7 66 5A
 2F 57 6F 60 F6 9A 91 06 B6 2C 43 50 DC 09 43 64
 7E A9 A0 E1 D8 CA F0 1E A5 7D 5E 3B BF 05 F3 C5
 D5 C0 72 98 D8 9B 8E E1 92 92 D1 08 D7 6E 91 57
 58 DD A6 33 62 C3 3A CA CD BF 60 07 15 37 35 5C
 0A 9A 79 98 CC 21 94 04 35 D7 6B BB E3 44 1B D9
 8F 55 C3 29 B4 A7 BB 8F 6C 0C 5D D4 4C 88 93 69
 AF 0B 00 2B 5B 18 44 0A 66 B3 29 BB BE FD E0 68
 71 74 24 CA 5B E9 48 D4 A1 25 AA BE DF 7D C3 8F
 F6 96 7C 36 E9 50 DF C0 DE 4B F5 D6 D6 FB 93 3F
 9E 1A 6D 36 A8 A9 C0 36 2D 9C 56 BF 57 69 81 B5
 14 C4 EA D7 51 A5 AE CF 3B 89 A1 33 43 DD 14 83
 4D 82 04 86 8A 64 AB F7 06 6F CA 72 E7 0D 6C D6
 BD 6F 7A 06 B7 15 01 24 24 91 C4 0A 80 CA CE 85
 E5 E3 08 A8 99 77 F2 81 E1 42 F1 44 1D 0F A6 CE
 03 00 DA 3B 69 65 21 4C F7 BD 03 3E 60 0D AE D1
 77 5C F6 3F A8 A9 B6 54 21 F4 6C DD F7 99 79 B1
 07 23 BE 91 28 38 96 75 24 3D 9F AF 48 1D 1A E2
 77 EA AC B4 6B 00 DE 54 EB 96 61 13 DD A3 2F 50
 14 68 37 29 63 7A A9 56 0D 84 8A 66 11 C5 FD B1
 9A DC 93 DF 22 BB EC 2B E1 E0 F4 CF C8 30 6A CE
 52 39 CF E9 ED FB 4A 93 35 8B AD EE 08 45 58 44
 D7 96 ED F8 05 20 92 A9 37 0E E2 93 32 72 2F 42
 FB E3 75 78 18 31 76 5F 73 32 7E 80 7B 2A C9 7A
 AC 81 DA 98 DF 6E 71 B6 1E B9 39 EE CE 48 EB 10
 52 87 26 11 D0 7C D5 39 24 F4 BE B1 8D B2 4E F7
 22 C6 98 F7 6F DD 5C 10 92 E4 07 EA 53 01 AF 1C
 69 8B AA 14 65 18 0D 10 58 69 C3 52 E5 43 E4 EA
 A0 58 FB 7F 09 AC 75 3E 11 0B 96 1C 4A 4C 11 20
 41 AE DF 25 41 BC DA EE 3A 36 C4 93 F9 E8 B9 27
 77 F3 23 22 53 AF 53 07 34 03 82 03 49 C9 A0 71
 D4 C3 21 C3 2A 50 D5 B0 E7 0F 25 FD 95 2F A3 39
 0A 3B F5 08 6C ED B5 5A AD FB 81 A6 81 7E 34 E6
 90 A2 0F 45 F4 DD B6 9C EF 7B 58 3D 98 10 A0 F8
 6C 62 5C A8 7E 19 D9 31 26 57 55 EF AB 7E 17 11
 DF 27 3D AE 4F AF 71 5D 69 EE 0B 7E 9A ED 56 1A
 E5 39 9F E5 86 A8 52 88 EA BC 50 40 4C FC C5 78
 DA 6A 80 CA 03 F6 11 1D 3B 4B 9E 73 53 57 DA F8
 D5 3C 86 25 0E 86 01 4C 9E 78 04 36 BD 43 74 0B
 C3 B3 CC 49 4F 0D A8 4B 36 8F E4 D8 65 CA 99 D8
 6D 69 AB DE 6E DA 2E B9 57 99 E4 21 86 04 3A 83
 E9 CE 1C 22 BF F4 DA BC BF 33 EF F8 25 47 F3 7A
 27 9B D7 1F EC 5B 24 1F 85 36 90 4A 56 3E A8 32
 87 AF E6 94 B6 1C 85 33 EB D9 D7 A7 9B 65 7A 6D
 92 A7 35 0F 9A BC E4 DB 8E 40 DA 65 4C 48 F5 A2
 B0 43 96 E8 A5 26 17 16 00 E0 FA 5C CE B9 0B AC
 45 3F BB 65 B6 33 92 F1 89 1C 0D B0 9C 89 7E 3C
 9C 48 AB 6D C2 88 8A 08 78 E3 69 AF 14 CD 69 3E
 FA F4 2A CE 7F 3A 19 CD 13 1F 22 9E 29 FD 90 76
 96 36 6A 67 90 50 01 72 4E EB D1 40 8F E3 06 57
 B7 0B 5B 6C 16 0D 07 B8 03 E1 80 DE 5F 88 C1 B9
 E6 96 35 E0 CD F7 F1 E9 92 30 C2 0F 1E FB E5 92
 E4 2D 6A 28 08 B5 49 B6 5B BF D0 C3 77 30 D4 71
 82 0E 9F 97 2F 7A 78 42 32 04 E0 C0 AA E5 09 DF
 51 7C DF 56 0A F2 43 68 94 0A 4D 8E 3F 61 1E 8C
 9F 76 2E 81 D1 9E 86 CE 2E 25 14 D5 B0 2A 2A F2
 FE 80 4F 61 15 5C 89 82 57 89 9F 99 3F DF 15 BA
 52 F0 0E A2 E6 0A 14 6D DF F3 AD 82 CA 68 33 13
 E8 EE 34 C7 03 8D 4C 70 FB A5 81 7D 2A 7F 9C BF
 7D CB 3B 6E 26 58 97 86 8A B4 9F C0 B3 0F A6 1A
 7C 29 27 B9 2E 06 CB FD 83 5E BA E9 A5 67 DC 4E
 5C 92 14 05 C7 9D 84 D6 82 CA CE 67 E3 61 05 EA
 F9 97 37 B0 C8 17 E0 66 78 17 A7 CD AB A9 6A EF
 EB EB 5F 3E 42 A7 D9 32 6D 61 20 6B FF FA D0 08
 C1 B9 1A B2 65 1F 4F A1 4E 37 2A AC D8 CC E3 BC
 DE 1F 14 B5 A4 72 B4 67 F1 0B 4C 8A FE F3 0E B5
 C5 51 E3 2A 9E 41 6F 6E CA CB 03 03 FF 6B 1F ED
 3A 0B 95 68 1E 37 76 CB AC F6 A5 BB B6 12 C9 AB
 84 72 C2 69 29 1D 38 0A 85 35 2E 55 9C B4 D3 A7
 A0 3E AE A7 AF C2 5D 30 C9 94 3B 6D AB 24 9F 73
 86 37 6C 99 E6 C8 E5 33 3F 3E F7 5A D6 38 FD DC
 AA 62 A9 75 04 6C 48 73 F0 BE 8A 53 AC 86 9D C1
 9E 21 66 31 22 F2 85 96 32 5C 95 EC 55 96 9B D2
 70 17 AF C8 4D 13 A9 08 6B 79 35 65 FD 48 9B 17
 88 95 E9 B0 A9 3D B1 F4 63 52 32 EB 80 FC 7B E1
 72 F6 9A 4B D0 BC 00 C4 04 C1 DA 1D 5F D5 EB E6
 66 8D 16 E7 84 8B 00 E5 4E 40 EF A8 EE 8D F6 7E
 05 FE 10 AC 73 83 63 0E 91 9D 26 37 46 C7 46 F8
 80 DE CE 0A 22 0A B8 75 FB C9 CF CB 42 5B BE 99
 FD 7F 9B FC EF DD 33 3F C1 AB 54 BE 67 18 31 5B
 D4 2A BE CA 4C 45 D4 E3 09 F7 04 46 D2 EB EA F9
 FE 56 05 F8 9F EB 2C C3 99 ED 0A 63 2C 13 A1 49
 9C 5A 8E 1F C3 89 26 68 59 A7 B8 11 13 AA AE A0
 D7 FB C7 B5 7F A3 2A B9 7C 77 4E 57 30 D1 3C 6E
 24 99 B1 E8 7C 1E E3 66 8C 14 0C 2A EB 78 06 43
 33 BA 11 35 EE 92 EB 45 C0 39 68 AC EA 67 7A DE
 37 5C 7C 3D 45 82 29 B1 EE F9 93 A2 F0 B0 B6 17
 6D 51 87 6D 26 B0 25 E6 63 23 B0 09 BE F6 22 AF
 F5 D8 D4 BB 65 93 28 27 4A 8A 1E ED 1C 2E F7 31
 58 9B 39 C1 8F 2C 57 88 0C 30 7E 49 3E 4D DA EF
 2C 02 DA B9 30 A0 F4 F1 98 28 10 C6 53 1A 4A F6
 12 CB 66 00 DD 5B EF 68 83 B6 F4 3B 9E 7E 00 34
 7C D3 9B 8B 73 74 24 F1 B3 CD 67 09 33 0C D1 7E
 6E E4 04 85 28 CA 23 B3 7E 02 4D 31 25 D9 00 EF
 E1 6D FD D2 6E D9 54 7C 67 D8 AE 26 1C 7C 09 4D
 CC B2 A0 D9 D5 2A EF 09 33 7E 2F 9C 96 77 F1 A4
 CE 03 29 25 A0 A8 10 5A 04 E6 C8 64 42 39 1D B1
 BB 97 3A C5 5B 75 49 F7 6F C9 CE 13 AD 00 4A 65
 FC 5B 12 29 37 98 B8 66 60 81 DE 99 DE 52 90 53
 FB 68 64 5E EB E4 39 57 F1 7C A1 57 B0 AD 12 E0
 F3 19 CB B6 73 6A 5C 61 7C A6 EB FC 6F 58 03 49
 B2 5D 86 4E 6A 49 22 B8 4B 49 52 6B D0 D7 7D 23
 C9 19 97 D1 CA B9 2F 91 F9 E0 91 8B A4 FD 79 9D
 89 F2 95 D4 E5 05 F9 66 C7 06 43 85 04 FA A5 BA
 72 52 3D E9 36 25 83 42 5C EC 1E B1 0D 19 E8 E7
 09 07 EC 3F 07 2D A7 7C 89 09 F4 5D CD 9B 85 DD
 83 33 39 39 CB 4C 90 FC A9 B6 C2 55 CA 55 A8 D5
 D7 CD AA 18 EB 97 50 F9 27 A3 89 03 91 45 3D A8
 34 D6 F9 75 55 A1 26 2F 2A 08 45 7B 7F 0B 97 29
 CC A1 C1 94 7F 8F E6 CD 44 AA E7 50 75 57 48 BC
 7F B8 7C 70 70 E0 C2 91 6E E5 A5 B3 11 81 90 FA
 10 D8 F4 73 72 4C 00 4B 84 66 80 84 D2 9A 11 11
 73 B2 59 93 94 54 30 B1 18 A9 A7 EF 3C 5F 44 FD
 EB 03 7F F8 BC 68 CB 4E A3 A5 39 D6 BB 5A 92 75
 B2 9A 83 58 BE 45 E6 58 C5 63 9F 9E C5 66 CF F6
 56 95 02 E7 E1 DE 73 DE FF 3D 56 81 BB 7D A7 3C
 73 D2 E4 1D 78 ED 43 49 3D F9 A0 B0 D4 20 9F 4D
 B9 B6 61 6E 86 58 F5 A4 88 B1 05 72 6F 26 8D 4A
 04 9D 98 A5 D2 8A 5E AE 24 79 BE 90 E0 C3 A3 4C
 2E 9E 3D 29 EF 51 5E 36 96 1F 8E 27 BC 9E 81 6F
 65 C3 49 24 36 AA A5 46 9D E8 92 03 F2 5D DC AA
 14 E9 26 E9 B3 E3 2E F9 48 EB 3D 72 91 80 33 F1
 1E 6F EF DE DB 99 8E 62 EC 1F 3C 59 14 28 18 B1
 D9 4E BD 19 AA 42 F5 03 17 6F B6 06 BA 1B 93 B9
 3F EB 47 01 F6 A8 CB 08 8B B4 83 B1 31 79 52 F3
 DC 6E 65 17 48 60 A1 48 47 75 27 03 8E 18 C8 90
 41 F4 AF D7 0B 9C D7 10 30 E1 35 0C 6E D6 7A 24
 2E B6 31 BC E6 22 85 CA E2 B9 EA 2D F3 42 C8 1C
 D4 32 BC 13 D9 31 3A 7F 5C A5 8E 3B 11 A5 69 92
 83 1F 97 9A B5 0D E9 47 4B E2 72 20 40 55 9A F2
 ED 04 19 ED C3 DA F2 39 36 77 52 49 2B 52 4C 66
 67 6F 31 94 32 7E 30 D2 39 7C DA 92 A8 05 AF AC
 8F AC 7D 48 FC A5 E9 F2 EC 5F B9 C0 2B C9 BF 71
 39 08 C4 C3 3C AC 9D B6 99 2A C9 9C 65 F2 9A C7
 EC F6 E5 9F A7 89 DC 33 C7 1E 56 99 C8 4E 77 67
 16 E9 FF EE CA B6 08 45 5C 42 00 8A E5 BE 0B FA
 B9 8F 52 B4 9C E3 3B 15 A9 04 8C D0 A6 4D 68 EA
 F1 06 08 8F E8 2B 7B AC C9 71 55 68 F5 BE F8 FD
 AC FD CB 9A AE DE 50 5C 39 80 B2 3D A6 4E AE 3E
 B3 52 2D 5A DF 2A E8 4C 4F CA BA D9 F6 A5 8B 4E
 C9 0F 42 AF E3 E6 C6 E4 FB FC 64 3A 05 15 D0 B3
 25 A1 77 29 47 F5 5F 86 D8 DF D1 1A 7B FD FF CB
 97 91 FF A3 29 1D AE 38 FA B3 0A 4D 33 72 78 76
 62 C7 67 98 3F 81 12 AB EC AF C7 7B FC 53 28 0F
 D0 46 17 1C 01 58 5C B3 76 0A 1C D5 E0 43 E0 1F
 26 5C B2 B1 56 72 2F 6A 82 44 00 0D 2B 45 F2 E0
 05 58 DF 58 84 04 D9 B7 1A 96 13 71 ED D8 A0 76
 DA 47 54 79 B7 C9 F5 07 D6 C4 07 CA 39 D5 92 51
 E2 53 4B 5B 16 D8 54 55 C6 44 9B C8 B6 0A 35 B1
 18 82 D4 20 32 C3 92 4C ED 59 82 C7 63 E3 12 8C
 4B 53 5A 4E 7F 46 5F A3 F6 B1 A4 E4 23 40 D6 33
 91 77 35 C3 E0 C8 E7 6B 8A 42 FA EA 79 45 12 21
 79 B4 E1 54 E3 53 C6 63 09 B4 22 76 DB D8 AD AA
 C3 21 B7 A5 C6 87 44 24 07 4E ED 45 02 DB 4D 56
 71 CA F8 75 7C 96 4E EE BE DF 7B 70 06 12 B1 A2
 20 9D A7 EE 4A 09 6F 42 C4 FA DD 08 77 54 1F 6B
 09 1C EB 44 B1 28 5B D7 09 11 C1 94 FA 0E 57 26
 82 D8 AB E8 57 49 29 EF 68 03 58 59 7A 6E 4F 0F
 85 0E D3 EA 18 46 7A 4E 6B 69 AC 64 3F D8 6D C1
 69 69 D6 D3 22 71 A8 CF A6 D6 04 68 C3 BF AB A7
 50 18 4A 0F FA 49 6F 46 68 FE A0 CA FD FD 37 21
 46 61 E0 CB 89 BE 56 AD F9 F7 D4 D2 51 71 AD 7A
 78 C8 AA BD 6A 91 C0 3C 2B D8 34 1C CD 6E FD 6B
 DC 71 66 A9 7E D2 45 9E D9 61 E0 CA 27 1B 31 60
 04 CB F9 27 AA 80 21 18 39 CA 1D 2E 5D A9 B4 72
 56 18 B3 79 2F DA 46 FD 71 A6 C9 FD 2A 67 42 48
 03 B9 5B 69 F9 F1 CD F6 E6 67 C0 5E 25 FA A3 9F
 CB AA 34 76 8F 3B 05 9F 77 5E 08 6E 3C 1B 1E 3D
 57 4B 12 E6 A0 83 3F 48 CD 4E E9 1D E0 36 80 F5
 04 E3 DF 56 99 AA AD D6 A3 06 7C DA E9 AF 57 18
 1E 7C 16 31 22 34 3C 7D 7B C3 54 A5 AF 1B 47 C5
 F3 D1 C6 D3 60 58 15 81 9A CC 7D F6 3C 72 B8 9E
 05 9C EA 67 36 67 60 20 D1 27 CA 81 F6 99 AB F3
 35 1C 48 E6 EF DF 70 BA D0 9F 76 E3 8E 11 0E 61
 27 C9 20 96 E1 8A 41 3C 2D 93 B5 62 14 13 E3 B8
 18 A1 C8 BC 0F DB 18 52 42 70 E8 6B 20 9D AC 36
 BC AF 6A 05 1F 15 08 5C D9 08 9A C9 04 9E C6 E8
 01 E8 2D 05 A2 F0 36 5E 9B E1 E6 BA 33 FF D4 EC
 54 0E A3 3D 44 86 AA 42 C1 15 75 81 56 20 96 89
 59 A9 7E FA CB 6B 94 03 02 65 BF D2 C8 A3 35 57
 07 3A 60 97 FA D9 2F 5F 57 EA 8D 8C 7D 19 58 7A
 DC D3 4B 40 9D 00 EB C6 B9 AF 09 1A A3 9F 12 6C
 8B 45 E2 54 B2 75 4F E3 98 DF 68 FD B5 C2 8C 3B
 80 64 25 E1 1C 87 32 33 9C 17 CC D2 AA CF 07 26
 AD 2B 0F B7 81 2F CB 4D 49 CD 25 74 A2 B9 BB 4C
 3D C0 98 C8 10 2C C9 1E 4E BF 35 BB 28 78 F2 8C
 97 05 AE 54 BE A6 A0 76 C4 FB 4D 78 35 20 69 2E
 E9 2B 42 68 05 27 22 F2 E3 A4 0C 6C 7A 92 3C 32
 65 B3 99 08 B2 34 F5 67 3F 26 4F 56 4C DF AE D9
 F0 23 73 25 8A B5 B4 80 0D 92 66 79 7E D6 AD 8F
 A0 BC 82 EA C7 9B A1 B1 12 E7 CC E2 29 22 37 1D
 EE 4D 88 AF 81 CB AD 06 FA 38 B1 C0 C5 12 81 B1
 2C 4D 47 57 5A 74 97 33 A2 E2 D5 4D 21 98 02 46
 3F 9B CF 8D D3 7B D1 C9 D1 E1 CD 8D DF EC 49 E4
 B0 FB 4F B8 76 3A 05 1D 35 8A FB 08 A1 43 28 EF
 75 DF 21 EB BB 76 53 C8 50 F8 8E 72 C8 FF 95 60
 31 10 FD 73 EB 1C A3 6D 02 40 EC 62 6B C4 F8 DD
 A0 17 09 68 99 57 5C 7B 83 00 70 EA BF 3C 4F 91
 B6 95 EB 52 4C 1E A8 A3 4F EC 87 43 95 45 6F 71
 BD D1 8C D3 28 19 B5 B1 2A FC 42 04 49 0A 9E 2C
 1C 37 F2 F6 AA 71 9A 78 7C D8 EF D0 6E 49 98 0A
 A7 AC 4D AC 97 F5 3F F4 6A 99 5B CA 07 71 92 A5
 C5 73 32 4A 64 25 79 9D B3 CA EB E6 75 0D 83 87
 17 2C 44 E7 9F 1D 7F 92 9B FE 5A 57 86 F1 92 4D
 77 34 5A B6 03 14 6F AD DF E5 BC 73 EC FC 6F C3
 E3 D1 79 38 A9 32 41 1C 38 C0 EF B0 D2 39 7A BD
 AF 8B A8 64 1F 6A DC 2D 20 1C 05 63 05 D7 20 71
 CE F7 CC 64 27 A1 0C 48 72 15 CC 43 83 B7 7D 01
 D6 E3 58 71 20 A7 A9 25 4B BD 90 C3 5F 81 48 E7
 F2 24 04 4D 53 2D C8 2E 24 47 1E 98 E0 EB DB 01
 70 B7 64 7A C4 A3 C1 FE 72 F0 8A 87 8F A0 EC D4
 DD 91 A7 21 4A 9C 00 36 0F 2F F0 7A 9F 17 0E 96
 6E 8D 98 76 05 8E C2 68 57 0E 7C BA 72 14 39 5C
 E3 73 3C 31 78 6D 14 C7 8E B7 91 24 75 6F ED F0
 72 F8 21 4A D4 7F CB 25 13 E6 2D 02 DE CC C1 65
 5E 46 A4 80 31 71 9D 98 E1 EE EA B9 9F C6 DB 59
 40 27 F3 03 94 D6 9F 8E 58 41 0C CC 38 B7 C2 C8
 88 5B 6F FF BA B1 25 FC 36 E7 42 29 5C 89 48 87
 CE 61 B2 C2 1E 30 F2 1B 28 DF F5 DF C3 3B D8 37
 A9 00 25 0A 87 1C 35 1E 3C C2 82 69 91 60 4F DC
 06 68 D9 38 66 4C 92 CE 29 01 D7 B4 DE 28 04 D9
 70 2A 63 83 27 2C 6B 38 38 5F E3 15 9C 90 EE 10
 BC 8C 01 6F 51 36 86 F3 6F E9 01 BC DC 4F 36 77
 61 BA 35 D6 F7 9D 63 18 DD 2F F8 9B D1 37 1C 4F
 87 89 DD 15 A3 8F 8E D3 E5 41 25 6E 18 21 67 24
 95 FB F7 19 40 DC 73 7C 74 5F 18 1C 0A C2 62 6C
 4D 82 15 50 E1 B1 04 39 D4 E9 7B 95 54 89 8A 69
 60 E0 2A 81 64 5E BE 03 A2 59 CA 1F 30 B2 5A A2
 43 8B A8 5E 94 B0 BC A9 9D DE 62 82 E0 1A F8 FC
 CF 32 32 DC D8 16 5F D7 9F 76 F2 0A E8 C5 F6 0F
 5E B6 0E CA 88 27 17 07 19 27 4D B6 95 79 4B 19
 B2 75 33 51 6F 81 86 F3 7A 32 32 B3 21 9E 90 1E
 A9 23 68 1E 3F 54 E0 59 DC C9 60 BF 90 C3 E9 ED
 5F A6 E1 5D A7 54 76 49 58 CD 9A A3 95 A6 A0 6D
 DB 72 19 17 B8 AB 93 A7 D4 37 F3 C4 11 5B 0A 8F
 72 1A DE AF DD 7C 93 FE F7 D7 CE EE 82 50 71 B5
 2C E2 BA 32 CF D4 F1 2C 93 86 81 13 13 AA B2 A9
 B1 50 F3 2A 95 DC 72 A8 4E 92 A5 D0 5B 8C CB 41
 F3 3C E3 10 AE 48 1C 8A 70 C1 A6 C0 1C AF 2F 23
 3E 6D 81 3A D7 EF 98 B6 82 27 C7 33 83 D8 53 CB
 CA F0 DB AB 27 C5 12 77 0A A5 A7 21 96 8B 17 C6
 6A B1 55 0F E0 89 42 F8 9B 18 AC 47 2C 42 22 19
 5B BE E0 CA 4E 11 9A A3 64 B3 FA E2 4C 39 0F A3
 C0 76 A0 A6 DD B5 A5 C8 53 E7 D8 68 F0 4D 8B 66
 0A 93 16 15 76 F3 3E A6 A1 78 8C 6D 85 5A 95 21
 E0 4D E4 A9 6D 11 B5 AD 17 F2 5A 46 45 CA 5E 38
 BA A9 26 EB 4F BF E8 DA BF AB 6E A9 58 72 EB 4C
 5A B8 D1 87 B8 BF ED F4 9C 96 60 1F 1F A9 D9 86
 98 3A 8C 82 03 DA 1F 2C 0D 61 98 74 7F BB 36 A0
 C1 78 5D 5F 0A B9 E6 01 C2 86 55 CD 6D 0C 01 9F
 0D 2C 61 85 B6 C4 29 1C D0 00 AB 74 8D 30 57 BB
 E5 E0 F6 15 40 74 E0 36 57 77 E6 88 8B 41 4F CB
 83 F8 FE FD 96 99 E6 FB 92 CB 11 85 08 43 99 36
 87 CA 69 22 7F 86 32 4C 82 D7 7E 99 B7 21 36 AB
 4C 17 19 05 1F 5D 2F 01 3F F2 EC 05 4F 74 3D 03
 40 07 DB D9 4F 3B 7A 94 7B 03 4A 67 9E EC AB 7E
 63 BE 24 C7 6F D8 15 90 A8 82 5E 86 66 F9 DA AF
 84 AF BF 4D 71 82 AD A2 D5 F7 F6 DC 24 E8 C5 4E
 B1 17 D8 49 8B 6D 22 8E DA EC 8E 66 0E BF 82 14
 73 FD 11 01 B8 E0 87 AC
* End 3539302678 3783478255