* LTspice Encrypted File
* 
* This encrypted file has been supplied by a 3rd
* party vendor that does not wish to publicize
* the technology used to implement this library.
* 
* Permission is granted to use this file for
* simulations but not to reverse engineer its
* contents.
* 
* Begin:
 B8 5D 75 CF CE 5F 84 D2 5F AD 7B 18 45 98 5C 9E
 3C 81 82 78 1F 32 EA 6A E8 67 7B 86 A2 5A 7E 05
 8D DE 24 8E 33 0F D0 86 1E 44 53 9F 89 66 DB B0
 F3 A1 C0 BC CD D0 D5 BA 83 1C 80 80 36 D5 C4 15
 CC 85 07 71 65 7F 2E B0 5A 1D D0 66 FB 20 BA 2A
 23 68 B8 92 BA 4A A0 C5 1C 3A 75 6C 28 B8 C2 CD
 4E C8 66 9D 59 CE A2 B3 98 18 C3 11 5C 44 37 23
 4C 2A A2 AA 17 51 A7 56 62 C1 78 9C B0 CA BB E1
 91 F4 F7 96 A3 8F 76 66 6D EC 80 AA B2 1B EA 29
 C5 1A 68 B8 36 0F BA 55 BA 73 3E 38 B7 8F 12 6E
 32 BC DB C3 30 54 A9 77 B2 33 BF 79 87 02 34 6C
 1C 5B AA 43 F5 DA 73 95 34 31 F8 F3 BB 4B 16 DB
 9C FA 19 F8 1F BC 24 C7 4D 03 0A DF 42 5B 0A D8
 A3 63 28 B7 67 B3 06 EB E0 A9 5D D8 C5 7A 91 68
 96 C3 FE C3 BE 4F A3 8F 49 92 A1 70 5D 1A A5 61
 14 39 51 A1 40 18 D3 12 19 3A 1E A8 F3 FA 44 BC
 EC E8 4D B7 D9 99 FB 87 61 93 3E 63 E9 64 16 97
 FD AD BF BE A0 F0 5F 6F 14 38 53 ED CB 1C B2 B0
 17 C7 41 36 70 BE 5B 4A 01 1A 60 4D 93 ED FB 08
 38 EA E1 38 7E 8A C7 A2 BE 66 AF 6C 91 D9 6D BD
 FD 5A 2A F4 53 D3 78 A8 B4 3F 25 B6 B2 5A 40 1D
 39 D8 1D 3A 0F 21 58 AA 8E EC 5A 6C C5 00 73 76
 85 36 BA C7 DC 0F 66 D1 D9 48 BC 30 01 2D E4 01
 94 0B A5 7B 55 C7 BE 71 67 C0 3C 0E BE B4 A8 A6
 1E FB 66 5A 1B 65 EB 89 8B E9 DA 02 AB 83 6F FC
 41 6B C7 50 A5 D9 FF 30 63 B4 25 E4 4F E4 88 14
 1F 18 F6 14 E7 06 D1 AB 75 55 59 1A B3 36 05 C4
 94 C5 64 4B DE 76 8E C2 9C 9A E9 FD 85 E2 C4 DA
 03 D7 4E 6B 5B 02 2C 0B 69 9F C5 44 6B D6 AC 81
 94 FD CE 88 F5 CD 9F D0 43 E5 F4 ED 40 1C 08 FC
 3B 51 15 9D 3E 27 46 C3 63 E1 98 77 C3 38 E9 D2
 C9 7B 40 C2 B0 E6 C0 1C DC 69 C0 D8 DB 0D 85 95
 07 77 28 36 79 60 14 28 B3 84 D8 69 CF 4E 20 AC
 DE 96 32 05 8A 08 73 E8 F3 7E A5 08 BA 5F 2D E5
 51 41 5E 48 33 8C 88 78 71 E0 09 52 B5 A2 AE EE
 DD 17 71 23 60 86 08 63 16 CC 76 EF B7 28 FA E6
 11 A7 FD 1C 6A 77 27 61 4C DF DF 64 C8 6C F5 A5
 9B D5 AD 1E AC E3 E2 C8 B6 EF AE 4E 4F 92 6A 53
 3B 9F A5 29 D4 73 16 1A B4 8F 0E C0 16 05 7E 59
 0B A7 2A 2B DB 17 8C 7D A9 34 84 0E C3 E1 D5 29
 D2 31 7C DA 5D 0F DC 3D 62 2D B2 FB 01 19 E9 D6
 8F 44 87 C5 C8 33 D0 7F E5 59 FE 1C 47 CC 28 6C
 4D 89 DE E1 28 11 4A 7D 12 0B A1 0B 12 8E 69 2D
 F9 30 63 2A 3A EF BB 64 CD 14 13 0F EA 0B D2 EA
 97 2D 79 38 4C B3 5C E6 C1 56 60 EE BE 65 A5 D0
 9E 36 13 06 73 31 8D 1A 38 EE 34 E2 47 85 21 15
 B7 F3 E2 AB 6F 38 75 D1 CA 28 91 51 98 57 4D 0E
 CE 99 F7 73 F5 62 DF 0E 8F 0C AB 0C F2 28 22 94
 62 C5 80 D7 F2 78 25 E8 6D 16 CD 72 04 34 C8 1C
 DD 65 0A 58 24 19 C9 C6 C3 30 03 D4 67 FA 0F 37
 CF DC 54 E2 CC EE 99 FE 87 D1 F3 61 A1 42 60 A4
 98 63 F4 71 B4 52 75 51 39 74 E6 BD 64 18 B8 3F
 41 70 C0 54 47 18 82 DB C5 DC 3A 97 83 FB FC 37
 5D D0 02 70 C2 69 AF F5 2E E3 42 55 0E FC 68 68
 E4 21 94 B1 E9 04 6C 00 4D 26 B8 F3 FF A0 38 43
 66 F3 48 3A 02 65 C5 D5 2B 1A 75 69 40 F7 C2 11
 22 32 2C AD 47 70 35 97 52 70 65 69 69 3F 94 5B
 9F 95 27 72 99 CC 14 EF BB 54 65 E8 C2 32 EC D5
 A0 FE 2C 03 3C 3F 9C 36 80 90 DA 23 A3 98 9A 81
 88 85 AF 57 EA 5F 16 C0 6C 65 B5 F8 D7 BF 3B 61
 08 62 9F B0 4A 43 3B FE C1 7F E7 63 6B E2 42 0A
 E5 C7 7E A1 E3 91 76 5F 48 37 F0 C8 32 B5 1C 56
 25 6A 68 4B 24 EC 58 F4 3F 97 54 68 6D 30 A1 D4
 97 1B D9 59 A3 33 14 4C 5B 10 66 1F A1 7D 44 D0
 34 51 0F 9C 79 18 00 6D 0F A9 3F 2B CF 7D 82 D9
 59 99 00 B1 0E 5F E7 7A 3D B4 D0 D4 9C F3 A3 DB
 49 50 5C D5 39 E8 81 A2 54 6A 0D E8 F8 97 D2 F1
 97 0F 49 33 C9 9B 73 54 02 59 23 F0 1A B1 93 29
 67 E9 2C 97 ED 8C 45 86 54 A3 A2 43 C7 3A 65 C0
 99 2C 7E 31 68 91 C1 AF 58 2F D6 B7 E1 4C B2 90
 5C 08 B3 B5 C7 C2 0C 9F 6D B3 75 A0 3A 8C 71 05
 EB 0D E0 E8 0F E7 CA 5C CD AD 66 71 85 27 8E 37
 97 2B 03 31 4B 26 C9 8B C0 CE BE 8B D2 A2 0D AC
 D2 B7 45 BA 6E 1C 4C 47 43 98 F3 62 BB 12 C8 91
 6D 07 D4 D3 46 21 9B CC 0E FA 8A FF 64 03 CA 66
 7B 7B 23 61 D3 3F CD FC 21 97 57 C7 83 F1 5E 5A
 4F A7 97 99 13 64 66 33 92 C5 8D 09 3F F4 24 40
 E2 5C 58 9B CD 9F 2B F5 2C 44 95 71 EA BE 5B 73
 9E 60 F6 8A FC D9 8E 04 03 2A 08 54 3E 53 14 78
 6A 0E C9 61 AF D2 CC F9 09 7D E2 11 38 2A 12 B8
 FC 9B 17 86 44 8A 2D B6 EA 32 B8 C6 C7 55 8D 4D
 C5 1E 40 56 D2 0F AD E9 CF 21 10 71 83 BF 6B 63
 65 73 7C 0C A2 08 36 DD 55 FA 24 1C 22 A0 9F 3E
 8B E9 17 0B C0 87 4B 1C 55 85 D7 04 2E B0 6B 66
 DD 25 81 F7 59 29 F5 5C 1B 8D 5E 06 C0 61 24 CC
 6F 38 F4 CD CA D3 81 2D 42 05 EE 9E 9D 31 6C E6
 09 57 E3 B4 6B 1C 58 09 88 59 4A 65 97 59 05 02
 50 A8 6B 60 2B DD B9 48 EB 25 F6 FF 66 B1 61 B3
 22 C6 B8 38 C4 DB 76 9F AE 4D 70 7D 8B 9E BE 8D
 AE B6 AE 5C A2 7F 5C 95 A5 99 C1 22 CF 77 1C C4
 5E F2 30 1D 87 14 27 C7 15 D3 99 72 A9 B5 39 F9
 F6 0A 49 FB 56 DC C5 4C 8A 12 C6 40 4F 10 8F 0C
 76 A8 A9 E6 45 B6 15 DC C7 BE 58 12 7B 77 87 15
 84 2E 4C 57 45 00 6C 83 F9 E2 21 EF 6F 24 EE 5E
 BE D6 C0 0D E2 30 B3 D8 83 4E E3 03 65 AA 45 9A
 7D E0 79 53 B0 09 CD 66 52 C8 1A F5 4C C5 B6 BA
 56 F7 19 7A 63 6C C4 68 45 BB 45 DE 51 C0 83 4B
 5D 45 A7 F0 51 22 01 00 2D ED 3F F0 50 FC E9 B3
 57 46 BB 60 FE A5 4A C2 00 18 25 D7 69 5C 50 31
 8D 66 50 BD 88 DB E5 EE 13 2A 7C CE E1 BF CC 0E
 58 5E FA 53 64 A1 F7 D4 2A 8E 34 A7 A5 B4 9F 97
 30 8D 2E E6 46 CF E1 86 50 2D 69 D4 39 04 57 1E
 3A 0D 1F 3F FE 71 EF AE 47 B6 6A AA B4 E0 9C 7D
 78 EB 93 00 9F C0 ED 67 5B BC B7 9E 95 D7 6B 6D
 86 6A A0 E9 0A 7C 9E 1A 2B CB 97 15 CB F4 C0 D0
 07 0F 29 4B 8C 5B 45 BE 99 C9 58 8B 67 34 6F A3
 6D 9A 1D 7A 77 00 5B 0A C0 7A 22 3A BD C5 CD 2D
 25 B2 38 BE B9 23 43 0C D9 B1 45 F8 12 A8 77 77
 54 F4 D1 61 0D 76 6C 0D 66 90 76 05 B8 83 A1 B1
 47 BA A5 58 33 41 81 5B 71 C5 63 08 48 D6 86 36
 9B 90 51 5F 4C C5 F8 45 41 66 10 6B C6 9C A4 80
 2C 40 1C 85 D6 2E A8 F0 57 4D 79 B3 E2 80 C1 AD
 0A 7B FB C8 AC 5E 57 D7 3A 39 CB 56 0D D3 82 52
 14 64 1C FE 74 8E E2 20 7A 9E 51 73 F7 A8 D9 7E
 1F 69 02 85 7F 19 00 C6 71 D4 67 E9 10 3E 98 9B
 03 51 1E 25 8F 90 98 F5 B3 DA C3 87 58 CB 94 2F
 4A 5F F1 0B 59 22 BA 86 D8 A8 24 2A 90 FD F5 C3
 78 63 14 70 D5 8D CB B6 E0 8E CB E1 01 1A 49 62
 A9 18 38 21 1D 7A 93 E3 D6 E5 CE 15 BC 43 6B 00
 18 66 3C 4D E8 11 B4 D5 46 AF 19 D1 95 21 4C 3D
 ED EE BA D5 54 8A DA 72 CE 12 E0 08 8D 97 A6 E4
 CB 02 1C 00 82 CA 40 44 8E 58 1F E2 12 8C 6B 17
 63 38 05 E2 6A 97 7F 40 89 DB 1D B6 C4 41 BE AC
 9E CA B1 E2 EB DE 1E 58 70 84 7D 9F 90 6A EB 0A
 EA 4F 08 72 93 7D 4A 2B E5 92 42 F4 46 C8 E3 CF
 2E 99 6F 42 E7 8F D1 78 80 CB 2E A2 37 96 85 81
 AB 74 D5 B1 71 3D 3A 3F 91 20 59 35 FB 2B FD 06
 2A 19 1A 5A 8C 62 C6 80 F8 D7 44 66 1A 81 C0 2B
 56 C4 EA E6 5F EE E2 23 52 CC AB 7C 37 AE D7 71
 46 9C DF FC BC 98 BF 35 B3 F5 50 71 11 4B 1B D2
 B2 F3 FF 3D F3 4E EE 3D 93 85 6D 3B D4 BF C0 C4
 E4 79 3E 9F 5C 10 36 25 86 C3 2B AB AB 7A F3 C5
 7B 68 F2 77 69 32 05 B5 0E C9 80 4E 15 F3 A1 E7
 C5 6B 44 79 D8 45 D1 D3 41 6C 7F E0 A8 29 B2 C9
 ED 07 84 A4 A6 B6 8C D1 92 78 BE 42 70 E1 B3 2A
 71 F9 77 76 1C 0E 83 04 AF B2 C5 F2 6C BE 9E 95
 E7 82 0C C4 5C AB EA EF 9A 01 18 61 D0 FC 8E 79
 29 89 EF 08 62 47 A7 6E 27 4D 41 65 92 61 4B 40
 6D BD 58 8F 9E 9A 43 AB 16 0E 24 1C 9E 99 53 1E
 18 72 8E B1 0D 6F 82 59 AF 20 97 5B 21 4B 24 0E
 74 FC 06 71 D3 24 70 2D EE 9A FC BE E7 59 53 63
 9D 10 4F 35 78 B8 D0 20 67 97 CA BF 03 FB 96 D2
 AD 6F EB 12 2C 75 C0 5E 6E B0 91 FB F9 A5 47 AB
 60 3F 8B F5 B2 09 D8 66 FC D4 F8 85 BE D2 8B 3E
 DB 57 3A DA 49 B5 A9 3E 6D D8 A2 8B C2 AE DF B8
 03 C6 D3 21 D9 58 D2 1E F3 CC 8E B8 AF 4B 73 8D
 43 FE 64 64 8A EE A8 3E 9D 0A 1C 16 EF 96 E8 B3
 C5 C3 FB FD 47 6F 19 5E EB FE 34 8A 5E A1 43 DC
 0E B6 66 B9 E3 9B 9B B8 9B 89 79 FC E4 6B E7 B3
 9C 51 DA 38 3A 31 E7 9A 50 9A C8 61 19 95 61 F4
 01 DD DA 40 41 48 79 DC 48 5B A2 72 40 13 FB 0F
 10 4D 82 02 D5 3B 5B 21 D2 BD 5C EF 2A CE EE 02
 71 A6 B4 37 48 62 60 DE 28 79 E9 B1 59 D7 C1 83
 66 D0 C0 A6 25 BB D9 5A 3E D0 6B 11 56 75 60 42
 4E 44 BB E9 54 D9 40 34 B3 4F EF 1A FE B1 4C 85
 AA DD C1 38 69 57 2C 25 4D 11 DB BE CA 20 6B 50
 F7 FA FB 9E E8 47 F0 CD 3F E7 3F 72 A0 92 43 EA
 6F E9 8A 98 01 84 C6 66 D5 1E E7 E2 41 59 AB 46
 2B 02 C5 EF 31 10 45 51 B8 7F 56 6D B9 F1 03 A0
 7B E2 20 03 BC 77 60 7A 96 9B F5 4B 93 5C 04 6D
 07 98 EB D5 BC 13 2B 32 18 4F AE 0A 44 0A 12 D2
 7E C5 B2 D0 6F 34 29 50 07 2D F1 91 7A 6D AB 22
 6C 6A 52 D8 94 BC 07 63 38 DE D5 ED 3A 02 96 00
 1D BC A1 21 62 88 49 5F 9B 06 BD EE 6E 94 3C 65
 8E 55 26 F1 47 84 E5 3B 64 C6 9C 57 CE 7C A6 D7
 36 0C F7 64 82 3D EA 69 D5 EB 0B DA 88 5C 53 A6
 4F 1B 71 8E 3C 36 4C CF 95 CB 42 EC B9 47 F1 D2
 E4 95 14 65 5A B4 63 B1 C5 0F 65 E1 14 46 63 DC
 D8 14 26 61 FB F7 02 99 04 63 6E 69 8A 9E D9 E4
 A6 43 3A 22 CC 23 1C 43 31 AE A6 94 82 5D E1 6D
 AB B3 8D 67 D6 B3 C7 D3 5F 5D 87 4B D6 96 39 BC
 C5 6F 7F 67 30 85 2C 19 3E B9 48 DE 3C B0 2C 12
 95 3E 7C ED E1 7F CD CE 5B 7E DF 82 FB 58 AF 73
 F9 B4 1E ED 4B AC 78 B7 1D 2C C8 18 44 FC 34 78
 35 72 42 F9 FC D8 F9 D3 1A 96 CD 7D BB CE C0 A4
 BD 28 0C 17 C6 D4 A8 1D 6F B4 49 C4 C8 7A 48 85
 FD 20 2B 3B 4D 22 A7 55 BD 4D 97 92 BD A9 3F C2
 88 B9 FD A6 B2 03 C4 49 EE FD B9 DF 95 CA 65 BC
 3D DB 56 1A 4D 7E 2A D2 76 97 2C 6F 1A 22 CB 4B
 BD 3B CB A0 FB EA E2 D6 AA C4 B4 1F D2 10 29 8A
 25 3B AE AC 0C BF 1B 25 8C 7E F7 0E 0E 8C A9 1D
 3D 64 3A 02 11 45 F6 C6 DB 88 F9 D9 24 D2 42 43
 A9 E4 0B AF A2 B7 AB D8 40 8B E8 F6 45 93 61 AE
 68 01 C4 97 8A 4B F8 7E 3C 89 CD 8C 1D 0D 5B 58
 02 89 3E CF 59 BD 04 BC DE A4 C5 0D 68 26 1A F0
 44 95 72 4E C2 A3 64 FA 81 C1 59 AD F8 DA CA 6C
 5E 2F 97 F5 53 29 80 45 1A FD 1A D1 76 A0 56 C8
 23 98 C5 5D 6C 1D 78 A3 45 78 D7 70 7E A1 52 14
 E1 D6 00 04 1D 2E A3 D5 99 FE 4D 19 60 AF 20 51
 A6 34 9E 64 DE 5A 47 0C D4 8B 38 95 E7 2B D5 86
 5C 93 C1 26 33 A2 E6 A4 50 6D B8 A6 D8 B4 ED 4E
 C7 A4 25 A5 4F 8E D2 AC F1 70 BC BD 03 54 03 21
 58 54 CF CA C2 68 89 B0 F4 66 C2 59 5C 18 1B 17
 38 F7 09 69 1C D1 C5 EC CF 61 5B BF 23 79 D9 85
 1C FA F4 8D F0 BE 2E 64 79 D3 D5 E0 B0 D8 30 F8
 61 80 12 E4 6A ED 53 CD C2 28 4D AF 6C FB 57 68
 4F 1E 00 5F 8F B2 C3 89 D6 DA AC 3A 34 38 35 2D
 17 E7 35 EA 8E 31 23 66 FB 0A 6D F7 3A 8E 34 DC
 A9 A5 24 B4 D5 A3 94 72 B7 76 9D 3E 18 3C 50 D8
 6B D8 DA 55 D3 B9 9C 70 4B 69 A5 74 3E B4 B7 C0
 DE B2 74 BD DB 67 FF D2 4A 2F 8C 70 72 29 A2 A3
 4D 89 5F 3F 3F C8 E4 D6 BE 7C 1C 5C 5E 29 9A 73
 D8 1B 36 0F 05 A0 D0 97 92 2F 3E 0E AE D7 A5 AB
 26 95 7A 21 BA 15 0C BF 26 AB 7B 45 53 6D 2F A9
 7A 96 47 1F C3 9A 73 14 7F 73 6D 41 34 AB 1A C6
 D8 A2 41 78 E2 7B B4 89 70 32 8E 8D 68 AF 98 B0
 6E D9 99 77 38 97 CC 78 96 B2 0A AA 63 CD C9 90
 40 16 C1 4F E8 6E 3A EF 9B 98 03 4A 32 3A FB 0E
 77 A6 5E B1 B0 61 2F C8 91 BF FB 42 B7 CF 0A 23
 E7 6D D7 42 4B 53 0F 3D 6B 1B AD 56 56 36 2E 5B
 01 81 3A 40 8C 56 C2 CC CE A3 DC 44 C8 22 AB 96
 C4 79 92 E8 63 89 47 E8 44 4E 72 3E 0B D6 F8 A6
 FD BA 79 00 FF 25 95 3C AA A9 58 44 59 59 13 BC
 E0 A8 5A 30 D8 C3 FD B6 7B 4A FA 08 44 3F C6 42
 02 C6 E7 0A 5E 14 1B 6D 50 60 FA DB 74 CE 11 4E
 7C 23 89 08 8E A6 FE 55 48 5D 77 7F 22 F1 2B 3A
 E1 CC F8 D5 FE 75 56 BA 42 00 DA 8C 57 71 F1 72
 FA 02 6E C5 D2 B5 92 D7 55 10 50 F4 CF 57 42 AF
 47 17 26 DD A5 84 33 E5 BC 58 4C B0 C8 D4 26 83
 0D 01 0D A7 4C DC DA BE 10 B0 FF 15 F4 02 10 C5
 A2 FA 87 81 ED F9 8A 2B 58 C2 68 C8 FC 5A 1D BC
 65 80 F5 1B 7A A2 DA 94 82 3C 27 AF 78 3E 9B 73
 D8 99 3A DD 52 F6 85 5C 47 0B E7 FE FA 46 D1 2B
 48 E5 49 9B 37 5A 7C 6A 76 CF 8B 14 F1 AF 86 B1
 1A 7F F9 FC E5 0A FF D5 3E 9C 88 DC F9 87 83 ED
 41 BF EE AB 1F 1A B0 BA 38 F7 40 65 2E EC 6C 4E
 7C 8F 80 AB 3E 56 B3 F2 7C 77 EE 3A 22 46 A5 8D
 73 EA 8B 63 83 EC CD 8B D2 F0 F8 A9 99 53 42 2F
 8B 67 DC 82 F6 09 AE BB 2B 59 D2 DD D9 69 D7 A1
 DB 78 28 26 F3 09 7F C4 9A 33 38 03 20 DD FA C2
 18 A9 F3 1D 29 60 88 0F E8 44 06 B9 96 94 2F 02
 B1 F6 C9 FA 0D 3C 08 1A 2B 35 98 64 70 A5 E1 45
 00 EC A6 83 D6 98 8E E4 11 FF D1 E6 BD 04 03 C3
 17 4B E1 2E C5 29 CE 70 D7 BB 1A 53 9D 28 66 79
 21 04 CA 71 C4 B2 2C 20 33 45 98 39 D6 39 2F BD
 42 3F 7E 29 12 1E B9 9C 59 3B 40 1D 89 9F C3 92
 B6 1B C8 36 52 BD 4C 77 B9 37 58 CD 0C 5C A0 05
 6B 3B 69 77 3A AD 16 65 5B BF 80 58 70 5D 05 FC
 4B 12 30 33 31 F6 66 30 FC F6 B6 A7 36 A5 0C FC
 A3 A3 78 40 5D 95 8B C1 F0 D4 32 93 68 EA 9C 3E
 C6 B9 1E 1D 00 14 5C B6 3B 6D 5A 22 C4 FF 44 D4
 AE CA D4 24 C7 D5 83 CC 17 30 AD 3D 66 83 38 5A
 7E 8F 4B 36 22 3C C2 6A C6 09 98 81 74 F2 AD 50
 7A 0D 78 CB 1F C5 FE AE DB 3B BD CC 3B FE 3B 97
 79 C1 69 FF 81 18 BA 48 F9 2E 51 04 B5 54 4C 8A
 FE E9 17 52 D6 1B 5A 79 1C F7 F4 75 C3 B5 4C 7D
 0A C2 A9 F6 AF 35 7F D4 A0 77 61 01 75 12 09 18
 A8 A8 A2 84 C6 E0 F5 7F 9D 7E 30 54 6A 88 41 65
 10 D2 DC 09 E6 2C 37 BC 0B 09 44 66 51 50 C6 98
 0E 0A D8 F8 5D 3D 62 C0 14 A7 DD 50 C3 9E BC 2E
 95 D0 8C C8 8F 7B 61 13 76 AC DA 18 12 EB B2 5D
 85 27 67 31 54 10 C1 2F F2 7D A4 1F A5 B3 7A 6E
 E8 04 CE D2 D2 8A 60 02 6A 43 6B E9 01 88 99 F5
 92 9A 7D FC 6D 66 52 AE B0 7D 17 D0 AF 2E C1 14
 71 0F E6 86 DC 2B 9C 9E 90 C3 DB FA 41 C1 41 02
 78 2A 04 F0 94 76 2E 64 EE 63 E8 44 42 E6 66 97
 EF 2B 83 90 30 F5 1D 75 BF EB 3D 16 BF C6 23 64
 D6 89 A6 59 6E 81 7C ED 72 0B A9 9E 7F 34 DF B1
 FE E9 4E 09 C0 9E 80 9B 69 20 27 F5 8F 55 51 B9
 70 9E C7 B4 17 E9 BF C8 C7 FE 15 4D 42 00 19 19
 A4 20 D2 39 E1 F9 D9 61 BC 29 EE 2B C0 26 91 00
 BA CF 3B 79 86 F9 E3 2A D0 CE 8A E8 27 14 35 3E
 9C 3A 58 3C 3B F9 CD 2F DB D4 41 D1 E1 6E 5C BE
 D2 FC B9 81 65 B1 90 3D 41 CF 2F DB 37 90 15 7C
 88 90 FA 0D A8 DB C7 A9 B3 4C 0B EA 16 F1 06 6D
 4E 11 99 98 D6 71 03 29 D8 64 53 08 18 7F F2 18
 F9 FC 98 38 8E F8 CB 40 91 BB 1B 5A EF 0F 36 BB
 B0 AE 52 70 01 ED 99 C6 2F D2 80 B2 48 4D 3A A1
 15 9D BB 67 17 15 35 52 C9 4B FA 0E F7 A2 77 71
 C4 3D 35 65 79 2C 27 AB 2A 64 DD 6B 2B EB FE 84
 C4 7C 88 DB C6 7D FE 60 6B 90 3A DE 78 81 57 1D
 7F D1 08 F5 36 AE C8 44 35 E7 2C F7 12 DD 8F 61
 3A 11 1C 86 3A 8B 29 7E 96 60 20 91 1B 70 48 C8
 64 7E 94 BA 56 F6 F6 4B F7 3E 31 BE 93 76 0B 0F
 20 5F 31 F3 EA E8 80 CF CF 07 22 D5 AB E6 B4 5D
 5E 07 31 C7 1B A9 52 48 FA B0 15 60 7D 33 70 5A
 22 EA 13 00 F8 DC 24 6B C5 05 05 3C 3E 51 B9 CB
 9B A5 3D 2B 6F 4B F5 56 92 59 7F 3D 0C 8F F1 FE
 4B 3D 58 D7 A7 0A 8E 36 60 F8 F0 96 44 DD 09 AF
 FA D0 A8 27 A2 2E AF A6 27 A8 1A 48 D1 95 92 BC
 45 A1 FB 47 CD 77 D5 AC F6 68 BA 11 E4 56 4B 2E
 EE CD E4 F3 0A EB 7D 15 3E D7 A4 DA B7 3D 7D 28
 C1 1D EF 8F 93 36 2D 36 D3 E5 BB 72 17 AF C0 75
 C2 37 BD CC F8 98 69 46 90 57 93 1F 39 B9 C9 03
 13 59 D4 19 77 78 A6 07 57 2B 14 E6 CC 21 69 ED
 06 CC 29 D1 1C 90 EC 33 44 D9 98 BD F1 06 EF 32
 F2 22 59 5D BF E1 55 5E D8 FB 31 09 80 C9 01 B9
 20 FB 16 56 0E 8E 97 D1 20 34 11 A8 08 9F 3C 22
 3C 43 F1 16 15 38 C2 40 F5 95 96 32 C5 CE 7F 6E
 98 39 D2 4D B8 0F C7 8A A3 29 12 21 24 70 2D 3E
 8C EB 46 D7 C1 19 43 72 D9 D2 FE 10 18 9B 21 44
 1B 85 BC 3A B1 86 4B 25 AB 34 11 F7 90 DF 8A F0
 3D B2 8F 4E 30 29 9B 01 92 57 B2 89 57 83 B6 E7
 15 AD 6A 89 A8 7A 05 D6 80 2A FA 7E FA 00 68 71
 AD 41 72 01 C9 5B 3A 54 FD 11 77 BF 21 C5 D0 4D
 F4 7A 59 C2 A0 86 D3 BD 50 E6 0C 22 AE 18 E7 97
 A1 05 69 26 C4 DC 1E 4E 32 BB 5B E2 5F 61 E0 83
 51 9F 45 3C 8C 9B 24 99 38 7B 0B D4 C2 07 12 E7
 BD 1A 91 B8 FB 56 11 5A A8 28 88 1E 2A 50 76 53
 4D AB 5A 99 AB E1 6A 45 34 CC 85 89 44 6F 32 AA
 71 70 4E E2 D0 4C D3 B8 73 AE 7A 19 B8 11 E9 C3
 D2 CE A7 4D BE 0E F8 31 3A 62 C7 C0 B2 6B 57 6B
 FE F7 E3 76 C1 4A ED EE 65 F6 CB E4 4F 75 D9 DD
 52 71 D9 E8 4E 43 45 36 63 6E 94 F7 3E D1 97 02
 D9 5C 79 95 59 18 48 68 B4 00 64 88 CE 4E F7 A7
 EB 1F 42 29 FA E5 A7 02 B2 F5 CD C4 D7 24 C7 AA
 67 26 7F 65 1E B5 9F D8 56 C7 27 9F 16 A7 1F 39
 EC 1C 46 74 0F 0A 1D 9C B8 76 82 FA 05 58 16 23
 31 04 E7 60 33 A2 09 5C 51 8C C4 99 E8 16 E6 0F
 3D 32 82 68 B3 E4 23 15 60 66 05 FD 3E C8 CE E4
 60 6C 4D B8 05 8D EE 13 0F A7 59 D3 1F 0D BE 41
 FA D1 B2 A4 A6 22 95 E9 7C D7 8A 14 B7 EC 2A 60
 8E 0B 5D F0 5A 6C 29 1E 00 CA 38 24 C3 10 51 6E
 06 B1 07 06 A8 7D A4 3E 06 54 75 D0 0F F3 40 F8
 7E AA 01 B2 6A DB C7 AB 9A 82 90 6C B3 47 F1 19
 D4 32 18 F5 26 1A 54 77 7B 9C 3E 73 48 A5 E7 5E
 8F 02 44 AB 34 8D DC F8 DE 94 79 C8 FD 7A 70 1A
 F0 8D 5A 1D 83 4E 8B 44 B8 2D 7E 07 58 D8 80 6B
 05 38 2D BF DA DD DC E2 C8 65 D3 BD DD D4 3E C8
 63 6E 5B B6 4B 1D 5D 85 F5 3A BF 43 3A 01 1D B4
 68 32 22 A5 71 C3 35 6F 2B 42 5E 46 AD 33 51 B9
 FB 92 EB BC 97 F2 8A 2B 3B A3 C4 10 10 98 AD 88
 7B CF 2B 2F 6D B6 34 44 4E 9C 51 61 72 36 C5 BB
 BA B7 75 07 28 27 1A D9 CC 70 8C 94 81 7B 25 6B
 4D DF 90 A5 40 6D 3E 8F 14 04 A9 C5 AE 92 F1 C3
 F8 A0 F8 F6 56 50 2A 32 80 8C 6D C4 C1 22 DB 73
 70 E2 8F F3 52 D3 CB B8 C9 AB 3A 80 EF FE 12 43
 91 ED BF 96 FB 28 75 2C 95 9C F0 26 A3 89 79 B2
 B6 A5 3D ED 78 63 3C D6 19 66 8C 83 BC 0A 6D 8B
 68 EC 79 C2 65 83 E8 63 D0 FD F9 00 86 21 7C 95
 76 BD 02 26 C6 27 50 AD 22 E9 79 6F 25 D8 F2 C1
 00 9F ED 80 EF C8 4D 16 36 00 B8 78 BE F3 EE D8
 16 5D 8F 51 D7 6C 68 28 A4 F5 53 C5 15 6B 0A AB
 B1 4E C0 A5 40 57 5E 47 E9 DD 8F 21 62 D6 1D DA
 3A 20 51 36 DA F5 D2 DC 89 2D E8 60 D3 05 4D 71
 3C 6E 59 B9 08 99 41 87 2B 47 65 D8 20 14 6A 92
 35 35 65 9D 49 73 B1 80 CD 44 C0 78 47 F5 4D D0
 C7 01 E3 88 84 17 79 26 A8 D5 C7 2F 9A BC F6 5B
 AF 66 30 DC D1 16 7E 74 B9 62 04 C9 BB C8 2B AB
 B6 41 AE 81 47 2B AA EB 83 42 D0 7C 90 E2 F6 17
 D1 BE A2 30 00 85 6A 74 99 64 03 75 98 D3 BA F0
 19 5D 72 C4 10 A1 BB 6A CD BB 62 C1 32 9A C4 63
 BB 51 CC 4D 3F 21 61 4D 5F 74 BE 77 89 EC 84 6D
 DC 2C AC B9 D1 83 DE 56 58 F2 C4 93 0E FF B3 95
 12 F2 57 D0 B2 37 CA F5 E4 02 58 83 05 B9 9F 14
 BC B2 C8 0D FB 9F 0B 58 C6 7E 25 7F BC BE FB AC
 38 CC F4 D4 83 26 AE FA 1B E7 FE 5D 39 BC 60 F4
 96 CD 08 EA CC F0 DA 26 EF 9B 17 B3 28 75 D7 45
 5B D8 69 54 C5 FE F9 3A FC 26 2C 8B D9 D0 5E 09
 FD E4 DF EC F8 6C A6 DE 27 37 62 15 7A FC 24 08
 14 28 71 94 08 C5 02 07 A8 AD 03 50 90 B0 5A 3A
 63 3A 97 CB F9 C5 8B 53 23 24 BF 41 48 C4 34 8F
 5B 45 DE 7B FE C7 8D 73 20 64 75 8D CF 7E 56 2B
 03 8C BD 03 71 BE 34 23 42 19 76 8D 7F 23 DF 7D
 F1 7A 68 86 86 BD C3 6A DA EE 8F 18 D9 21 16 75
 75 28 21 DA 6B A6 7D 74 8E BA D1 13 98 78 A4 84
 84 38 65 AF E0 10 5E 9D FD 8E FB 1C B3 28 B2 76
 99 C5 51 A1 F4 3E A3 AC 87 85 63 6D 3F 39 8C 5E
 5F 7A EF 35 D5 99 BB A1 A3 43 D9 84 1B 1A 0F 9D
 8F 11 92 B4 76 59 6B A9 04 25 38 00 84 DE 83 05
 39 F4 BE E6 30 27 D4 14 B0 60 0F 09 03 2F A5 C3
 11 11 02 BD 1E 68 CD 3D 7C B0 5F D0 08 3D 2A BC
 85 AD B1 D5 52 4C 53 EB D7 9F 76 35 2C 01 B4 3A
 D2 1E 6A 8F 2E AB D4 7A D0 51 B5 BA 8D 03 7E D3
 EE 54 4D F8 D1 B3 51 47 60 C3 BF A3 0F AE BF 44
 FB 42 20 26 1D 05 46 A0 43 0F 09 68 A4 BB C1 C4
 55 81 D1 4F 65 69 8C 87 7E 4F A0 B3 B9 6A 7E 60
 3E 4D 5C C8 47 B3 96 D9 42 56 8D CB 79 EC 25 39
 2D 97 FC B4 3A 16 3F C5 7B 86 2A F6 FB D9 51 14
 D1 BE A9 A7 DD 26 B4 F8 81 42 38 37 18 A0 DF 5C
 15 84 44 BF E5 FA CA 69 C4 B1 CC C3 F5 E1 52 88
 5C 8C 1A 2D B8 B0 50 4C FB 47 43 BB A2 CD 10 D3
 DD FD B8 BA EA EF 05 CC 0D F6 92 D7 4B D7 C9 EF
 F6 26 0F 8F 49 40 05 53 80 DD 37 CE 6C 5F F5 CA
 CB 4D 5F 5C 4B C9 D1 2F 0C 34 00 1C 63 E0 28 12
 1E 9B 43 90 08 B0 1A C9 25 26 99 12 94 5C 79 A7
 0F 38 27 84 1C 6B B0 E6 2A 5E D3 58 7E 9C 8A 51
 B8 27 7C 99 FD B1 73 F5 D6 AF E7 A9 14 B9 CE 28
 2F 33 DF 6D 7C C2 2F 41 50 47 27 06 7E B4 ED 92
 CA 89 B0 F1 C1 F6 3B 66 58 DE A9 93 F8 DB 89 97
 12 5D 8B 1F C2 49 8F 52 58 9B 05 01 9D DD E7 B1
 A0 9F B9 39 FB 02 8E 1B 1A DD FC 1C 5D 2F 85 8D
 36 D6 74 1E 1E 8B 20 2B E1 E0 86 CD B9 A7 52 66
 D2 96 8D 61 F7 8F 13 80
* End 147282987 3576946374