* LTspice Encrypted File
* 
* This encrypted file has been supplied by a 3rd
* party vendor that does not wish to publicize
* the technology used to implement this library.
* 
* Permission is granted to use this file for
* simulations but not to reverse engineer its
* contents.
* 
* Begin:
 F1 CB 69 73 8C 96 B3 D6 AA 90 A2 4C EA B7 51 84
 39 FB B5 CD BE 36 2D 3A 51 01 06 01 9B 68 76 D4
 EA FF 8B 32 0D 54 03 0F 9C 47 93 07 4E 8F 60 10
 63 A3 9A 07 07 61 37 D9 A7 71 BF 18 97 83 88 5F
 1C 28 E2 5D 0B A1 BF B9 C4 2D 35 18 34 98 13 44
 DA 5C 49 75 1A 86 A3 9D 1D 9D D3 E8 FA CD CD 0B
 9A A7 BB 95 C7 90 15 07 E7 DC 9C AE 3A 8E 0A 62
 F3 FD 8D 2A 5E 54 5F D4 1D C7 CF 0F F9 39 D3 17
 C1 CA D3 F2 FA 54 73 7D 02 93 66 1D 07 9B 6B 32
 BD 74 40 A8 F8 62 0A 59 B7 7A 3B 0E DB 69 2D F9
 1F DF B5 7C 30 63 31 A7 57 E6 B4 A5 DA 56 3D 78
 52 EF C1 97 EB E8 E1 DB 85 11 36 F1 40 66 03 2E
 D0 1A 7C E4 94 25 24 26 2A 67 90 50 48 C8 ED FA
 3E 13 7C 69 DB A7 49 9A 17 D4 75 1E 43 9D FA 41
 58 5D F5 B3 70 E8 18 9F 2B A6 AC 5A 30 2C A2 FE
 2E C9 8A 4E 7D A0 77 43 4A 12 9A 3E F8 9C E5 3B
 6B DB 2C A4 AC D9 B9 75 76 C1 2F CE 17 64 F4 23
 04 A0 21 5F 79 60 38 5D 0D BD 68 E0 E5 6D 7B 71
 D7 1B AF A4 99 1A BC 75 76 79 7A 33 25 BE FF C5
 F7 0B F3 D4 A0 DA 45 CE 6C 65 6B 52 4E 2A 10 2F
 47 DE 59 3B DF 9E C7 08 4E A9 89 03 C9 07 F3 C0
 46 F9 6E FE F3 3D E3 0E B5 BE 15 89 94 8B 77 0D
 C2 DF 0D 88 7E B1 3B 9E FF 56 45 14 A3 C4 ED F9
 F6 68 B1 83 A5 C2 AB D8 AC 54 DC 66 21 DD 4E 06
 5F 68 65 63 87 2C 35 68 D5 2A 04 2F 3B 38 58 CC
 E9 B2 28 FD 3B 31 6E 79 F5 0A F5 88 57 04 C1 BD
 71 33 FE 77 E8 33 BB 3D A6 52 CA FF 5A 40 7E 32
 77 0B 29 F7 14 56 37 A9 39 F2 61 D4 94 9E E4 C2
 01 2B 07 21 90 D0 34 57 0C CA DA 93 1E FD F4 3C
 E0 26 40 39 F4 C2 40 B9 4A C9 4A D2 13 50 AA EF
 7B ED D4 DB A1 D5 37 57 94 B1 77 B3 65 25 74 93
 79 BF 90 B2 E3 0E D2 73 79 24 38 45 FE 60 7E 5E
 CF C2 D7 9C 56 9A 2F 8D E0 D1 87 C0 B4 C6 63 64
 87 B9 59 D5 12 8C F5 5F 55 E7 D8 82 D0 D6 7B A5
 6A 1E 9B B6 57 0A 35 AB C1 AE 28 27 1E 28 DA 22
 90 AE B2 F7 49 AF 37 02 11 77 9C 3C 00 21 FB 80
 57 48 12 E9 61 4A 86 E0 3F 12 42 1E B0 91 7B 35
 A5 0C A1 58 B3 5C F5 A4 9B 44 8B 16 9B 5C AB DA
 21 EC 1E 0E 59 60 AD 3D 56 F5 F0 4A 5B 1A 9A 0D
 DE C9 BB 98 E6 65 1D 63 4A 87 23 37 F2 A5 AE 2A
 BE DF E1 73 62 2E FC 73 83 50 4F 61 A9 FD FD A1
 85 5F 90 2F 10 E3 5D 83 ED 8F AC 79 DC 5C A1 86
 FF A2 61 62 F5 5D 33 98 8F 8B 48 2F D8 39 4D 17
 3E 46 AC 0E B7 49 7B BD F7 DC 83 9D 6A B6 EA 62
 8E BF 92 00 9D CE 7A 6F 2B D9 6D 62 7A 1B DE 42
 75 A3 47 7D D8 D9 73 22 14 4D 95 55 78 83 9F A2
 49 08 96 0A A9 4D C7 5A C4 53 75 92 1D F3 AC 71
 F9 18 09 1D 56 38 02 F6 B3 AD 6A 52 89 7D C3 E2
 15 FD 86 4F BC F5 F9 DF 8E 68 EA 28 C0 1C 0E BB
 04 78 13 A1 ED BF 23 14 45 F0 05 63 D2 CD F2 09
 8D 50 CA D3 9E 62 88 E0 95 ED 41 44 3D 23 D7 DC
 BE 03 BC D3 10 C7 6F 40 AD FA 12 57 D2 57 1D C0
 4A 34 8F E8 57 E5 C8 38 B2 1C 75 72 49 24 70 D3
 DB 11 97 40 5E BB 62 8E 6A AD 35 A5 4E BD BF 64
 01 7E C6 84 A7 CF F8 F3 F2 AE BD B9 0F 7E 89 8C
 EA 8A CC 42 B9 13 C7 6F B7 9F AF DC 31 36 66 48
 A4 91 2C 2C 97 D0 8B 4E DE 3E 2D EB C3 63 B5 97
 C7 9A 56 9C 1E 0A C5 44 77 EE 0D 23 B2 E6 6E 11
 5E 8C 58 87 78 53 B2 10 4C BE E9 25 6F DE D8 78
 E0 C0 AD 3E 56 40 6E B5 94 40 C4 D3 54 C8 10 4C
 FA 4A D4 44 06 C0 AC B5 3B 77 94 D7 AA 2F A0 49
 80 DC A5 C2 4A F9 37 9B FE E0 F9 FA 5B E1 6F A2
 84 B5 F7 67 9D 8D 67 5F F7 66 F0 78 4F 76 83 81
 A5 C4 41 9C 8B 9C DE 61 FE 50 E4 9B EE 43 C5 03
 A1 BD 37 4B 40 DF F1 F6 C6 AD FB 28 85 37 A9 D0
 02 13 F9 17 5B 6E 29 EF 51 B0 1F E8 86 B9 C3 0E
 78 47 A7 8C 3C 12 10 60 60 C2 5F 46 FD D8 B6 77
 4D 97 7C 75 60 49 DA 89 48 51 36 18 73 F5 73 FC
 AC E8 9E 6B B7 BE A7 0D 8A 85 B8 24 80 4F C0 0E
 A5 04 67 40 54 D6 47 6E 30 6F BB 9E 3B 91 D6 F7
 D0 E7 2A 6F 58 78 0D 81 71 CD 04 7D 78 AE EC 35
 FC B4 6D A8 4E 74 B1 0F 82 47 74 1B 11 62 3C 50
 88 54 65 39 6C 80 20 06 2A 75 23 B4 6D 5E 5D 42
 1A F9 BA FE 95 49 3D 5D EF 67 F3 03 06 FC 77 6D
 6A 99 E9 F3 03 96 B2 3C CD 01 F4 9B D0 25 0C 75
 AC AE 69 66 D8 8C A2 69 AB 14 3B EC 39 F5 75 D8
 D9 5C 0B 66 29 E9 D6 46 99 12 90 D6 8B 10 BC 55
 1C 5E 5A 18 93 34 67 16 85 27 11 2E 84 76 54 BD
 6A EE EB 49 6F 68 B1 8D DF E3 80 5A D1 A2 C5 EC
 38 F0 62 73 A8 9D 4B 2E 88 E6 F6 F4 9D DF 05 00
 49 55 A8 06 E9 40 43 85 8B 0F FA 38 7F FD 14 7B
 A3 0A 13 A9 E2 99 04 47 67 88 AE 26 6B 5F 0D D8
 D2 D2 78 8B CC 2C 97 3C 27 10 5D A1 E4 95 6F CD
 7B 24 28 82 3F AB AF C0 F4 4E DB AD 31 A2 AF 1B
 C7 92 34 56 E7 1D A9 3A 29 34 9F C6 B2 89 E4 45
 24 38 E1 15 EA 0B 59 4D 2B E0 84 07 86 6D E0 F5
 3B AB 08 12 2D AA E8 3A AA E9 8C D1 6B 5E 10 91
 52 81 F3 38 24 EE C8 83 88 41 8A 72 B2 5D 2F E7
 B8 6C F5 FC DC 1D D5 5C 9B 73 11 9B 02 89 C7 AA
 D8 98 06 50 0B 36 1C 95 19 D1 CE 72 C9 0D D9 D5
 11 4C AC F4 89 1B 3F 50 44 28 44 5F 56 ED D7 9A
 97 60 FE 52 33 F2 80 20 38 26 46 44 12 47 5C 4D
 02 FD 33 A6 C7 44 3F 03 A5 0B 5D 57 5A 23 AE 93
 94 95 13 C7 AA B2 EF 38 49 72 EA 49 A4 01 C3 B6
 1F 78 34 07 D5 B1 57 AF 2A FF 61 45 B8 72 CA 62
 42 6A 53 B4 49 7F AF 31 9A 73 80 DD AD EB 4B 9F
 E9 16 44 6F F4 D1 06 0A D8 11 2D 77 7E 0A F5 77
 76 A4 97 D2 CD 8C 87 23 9A 64 26 5D 11 03 0A 0C
 94 BB 3C 5B 6B 1F B1 F9 EE BF B9 34 AC D9 45 93
 B3 E7 13 DD 05 21 22 74 7A 71 A4 21 EA 7A 63 BA
 6B EF 91 4A 24 40 ED 89 70 44 0B D1 7F 4E D7 FF
 3E 03 51 F5 77 67 88 26 7B 65 F3 22 1A B3 1C F4
 09 6F 56 0C F1 B5 28 E8 69 AB C5 A5 5A 85 80 C0
 EC 9D B2 87 D4 05 36 F1 C8 FD 06 9F 11 04 87 99
 07 A2 1F 07 5B E3 CC E9 E7 97 01 4C B9 19 EE E8
 CC 95 3B 24 EE 6D 81 CE DA FF C5 8A 0D 3F 39 5F
 72 15 2B E9 D8 64 E5 80 2C 42 48 FB 7C F6 62 D6
 43 8F 8A A7 09 E5 3F 55 BF 01 D4 E3 0F 46 E8 21
 F4 29 11 A5 D1 BC C1 8E B7 CF F7 44 44 71 7A 42
 3F 08 0B AC 71 3C 8F 8E B8 89 B3 75 31 C5 4B C5
 88 42 B3 C6 1E DD 7B F5 10 5B DE 6E B4 15 52 74
 11 5F 38 6E 6F 35 34 D0 4E 14 55 3D 02 80 2F B5
 8C F2 DC 4D 3F 04 77 E6 10 3F A7 1F 35 3C 61 CA
 7A BB EB 81 50 D7 3A 75 E9 D0 E3 62 70 06 0F 69
 9B EB BD 9B 7F 5A 27 4A 03 88 79 4F 34 35 D5 5E
 BD EE 69 D0 4A 9F 2B 0A 21 BE A2 5D E0 81 13 DF
 EB 62 5B 8E 36 97 B9 16 3C 19 4D 0E 65 AF EB 4E
 79 36 A6 87 7B 6D C5 1E 0C 53 8F 02 56 DF 4F B9
 4A C0 55 BD 1B 02 5C 36 96 FC 80 F7 22 21 29 28
 68 2D 14 CF 52 11 68 DD 27 5E 4A FE 98 CA E5 CB
 3D 9B A1 48 A0 A6 44 4E 0A C1 25 30 82 A3 08 F8
 6C F8 C1 97 40 1B A6 2B 5D E5 4C F0 57 16 75 8B
 D7 2B AE B2 55 22 AC 25 BC 4D 84 D9 F4 BF DC F4
 2C 6A D1 9E BE 95 DC DF E3 DF D1 ED 43 CC C9 D8
 00 B8 7C B9 7E 4C 7D D1 C5 7E DE 44 DD 2F 35 F3
 6A 6B CE F4 72 8B 62 D7 C3 1D 5E A8 66 AF 4C 0D
 BE ED 19 C3 CE 6C 54 3C 69 C2 BE 51 69 05 98 DA
 F6 70 1F 14 B2 70 41 E5 C6 22 D1 63 47 AE BE 90
 2A AC F8 DA 97 24 55 5F 5A 89 42 D7 9B 43 6C 8B
 57 29 BB 9C 18 76 DA 61 80 6C EA A4 7D CF 7E 07
 23 90 EE F5 7C 18 EC 54 48 A1 0F 0F 42 AB 31 6A
 06 1E CD EE 91 D9 C9 74 91 C0 F2 BE DA 2D 77 86
 C4 CB 31 D4 81 C7 55 C7 14 06 F3 F9 68 37 5D 60
 06 30 CF 1F 76 5C 14 15 6A EA 68 34 C6 5E 07 EA
 73 A8 58 B6 80 79 14 9B 22 BD E7 15 49 E2 E3 2D
 B8 34 14 71 42 28 3E 22 8D 3A 6C F4 0A 15 3D 3F
 01 2B A0 88 B0 C7 7C 3B 01 32 BD 26 BB 9A BE 5A
 E8 62 8B 8F 96 A6 EF C5 02 35 1C 49 B3 0B 6A B0
 73 BB 35 5F 5A 2C 26 41 A1 97 96 E5 7C 95 BD A1
 D1 65 97 B5 E4 23 7C B7 9C 0D 7C 4F 38 CC 9D 1C
 FA DB 7C E6 BC C9 57 F5 F4 A5 21 BA B0 7F 82 B8
 04 DC 52 ED 62 16 8E 7E F3 68 C6 6E 6D 34 BB 1A
 4C E5 64 F9 73 65 EF 04 77 36 F9 4E 46 C0 16 A9
 A5 00 1F B2 78 FB E6 5A CD AB D4 13 B3 D5 80 D6
 30 B7 0A 1F 19 E1 83 43 99 BE A2 A5 9C 37 35 C5
 7F F2 4E 11 AB 13 0B 2C 8B 13 4E C8 2B A9 19 C1
 8C 4A 36 73 7C AB 55 A4 8D 01 F5 7B 3B 46 0B DB
 FA 52 B4 90 20 44 95 51 BC B2 4F 03 19 15 A8 EC
 D2 8C B8 D0 1E 70 D2 52 0D 49 9A 01 80 BD 05 11
 62 EF 08 98 74 20 B1 5D 26 83 34 17 EC AD F2 3D
 20 22 39 81 04 44 1A 3C 45 87 68 53 B8 91 4B FA
 4B FE B7 F1 C9 0F F7 78 2F F8 34 C2 1A 6C B1 5C
 DE 33 A9 90 7A 97 AE 94 93 26 3D A2 5E FA 05 D7
 E3 1A 69 98 87 FC 25 FF 6B 32 97 0A C6 70 51 8E
 2D 07 60 41 66 C8 DF 3D 78 C4 D0 74 F3 41 0D D6
 E7 B0 EF 7C 30 8A D2 B6 60 C2 DD 04 23 90 D8 77
 D9 7E 62 C1 6E 37 E1 86 22 E3 7F BF D8 74 BE 69
 B1 CE 96 C5 8F AF 07 00 0F 8C 73 8F E8 C3 D0 B5
 1F 35 69 DB 25 3E 37 E4 C6 6A 18 DF B0 3C 94 B4
 EE B8 C9 42 76 01 75 B9 34 83 E2 3F A0 48 1B 9F
 F3 EC C3 95 7C 15 F6 4D C6 17 6E 86 29 0A 7B D2
 24 A5 1F EF 80 4C 49 9A 85 E2 DC 97 4F BF C0 09
 1A EC 85 F8 CC FF FF 86 D5 33 1B 4C C6 98 A6 BE
 CE A3 10 53 0A 0E D4 B4 F5 6E 67 01 AA 41 CD 45
 78 13 C7 40 B1 43 4E E4 16 8F E3 31 BE F3 D7 9C
 72 4D C9 BC 0E 6B 20 12 2E 43 F7 73 95 4B 04 AD
 1C B8 F1 D2 61 77 4C 83 40 B1 4D BF D9 B3 53 15
 8C 12 35 7F 2F F7 F3 6A 7F D9 E0 CB D3 A0 0A C2
 BA 6B 56 6A 03 43 68 18 2D 1D CC 28 81 8F A9 9E
 63 CF 98 EB F8 A3 81 D1 23 46 2B D5 BC EB 7B 5D
 4D BE 94 E3 DE E5 88 99 59 F1 20 C5 0D 32 9D B0
 4C F0 97 79 39 EF 82 91 02 2E 97 27 FC EE 30 3F
 97 0D CD 6D A1 76 CA 46 D7 66 A2 E1 D5 88 8A 5B
 3A D9 0D B9 D9 11 0E 15 BE 9F 15 52 71 93 74 2C
 41 46 73 1E A1 C7 FD 98 EA 7A 5B 8B C8 58 85 00
 C2 C7 7F 5F 47 D6 CC B5 8B 1C CA 4E BC 46 31 F6
 E2 4F BF 7E 89 DD B2 F7 75 28 F3 7C FE E1 F9 CE
 43 74 87 C0 B6 B2 27 44 25 08 0F F5 5F D9 62 03
 74 CA 3A 4A 3E 60 53 60 8A A1 19 7D A7 07 50 CB
 AC B8 ED 80 E5 26 BF FF EC 06 97 22 8F 59 77 1E
 68 9D 0E 06 00 8B 44 5B D0 C5 85 6B 10 AB 34 53
 0B 1D B6 53 92 FE 13 42 8B D5 A0 E2 96 80 4C 30
 F8 45 53 C8 89 82 84 85 A4 90 21 7F 03 0A DD FA
 93 2B 2D FE 49 92 B0 BB C5 D0 E4 A3 D2 7F E0 93
 5D DA 3F EE 00 92 23 35 49 A4 79 D0 F1 B8 53 86
 29 24 AF 44 8D F1 9D B7 78 9C EF 60 2E 68 B9 40
 71 11 8D 69 A7 60 39 CB 8A BB 9B 85 55 45 6F 6D
 63 47 FB 72 1E 32 EB 37 91 77 62 8A C6 4A 04 EA
 D6 A5 45 11 80 95 79 F4 18 0A A4 F6 F8 19 9D 9C
 41 F3 E9 30 24 A0 F6 21 FB D0 0F 63 19 65 B1 D1
 04 90 37 03 5B 6E 1C F1 9D A6 AF 67 D4 C1 64 02
 A8 24 E5 E9 AB 30 46 5E 5C FE 87 8D E7 37 5A 27
 E8 04 4D FE B3 52 B2 C9 D0 0E 91 B4 F9 8A F5 C2
 86 50 08 13 0B 5F 69 C6 84 CF 09 22 C8 DB 6D A2
 EB 6F 0A 64 45 C6 EC 09 24 30 B4 4A AC C5 B9 BB
 18 09 85 FC A8 51 12 DF 2E EC 83 44 50 B2 7F B4
 CE 9C 28 81 39 14 9D FE A5 82 76 FD AA 46 ED EF
 79 08 58 44 A6 36 06 2E D7 22 61 5E FD EA 58 7D
 CA 43 65 59 9C 95 CB 50 08 8F 3D 02 EC F3 CD 5A
 C2 83 F6 FC 9E EC E8 BF 9A 0B 20 84 CE 68 F4 DD
 3B 0E 75 E2 7F 78 B6 92 DC AB 33 EF 4D 09 72 1C
 4F C5 2E 94 E2 6D 1F AA 8D 27 E0 F6 21 76 3D 1C
 C7 21 8E 99 55 0E AF 09 90 3B 71 D7 EC 84 25 4B
 41 C9 13 CF 81 CF A3 68 10 56 7D D5 F7 03 36 55
 34 06 61 C8 5A 25 2D 48 A2 1D 6C 19 E6 EF EF CB
 5F FF 68 B2 54 3B FA 19 60 40 4B 5D 8E 0B 43 A0
 F2 06 51 65 67 AB AB 32 2F 57 2C AA 06 4B BB F7
 8E AB 37 DF 06 B7 45 3E A9 A3 5C A9 74 5A 2F 5C
 CD 0D 29 85 55 FC C8 DC EF 45 49 9D 95 ED 3F BF
 C2 9C 2B C2 83 20 49 85 7C A7 FA 58 E0 11 EF DB
 80 35 D0 12 5A 85 DB 67 0A 5D 62 57 98 DF EF 09
 B5 4B 1C E4 19 0A 66 77 D7 B7 8F 89 85 F3 D5 47
 46 66 03 74 1E 72 57 33 A8 D7 FB E3 2A 0D 6B 3C
 D9 57 AE DD C2 4F 83 30 F1 BA 51 EE B8 5F 35 42
 1A 84 4F 19 2B C8 7C EE 51 38 03 B3 98 78 E4 5D
 FF 7A 62 30 8C 97 EE F7 BC 3D CD 34 3C CC 26 D9
 30 1F 73 F0 28 A2 9A F1 F3 D6 63 12 C8 B7 47 C2
 D8 9B 80 AA 8F CB B5 D1 30 CA FB 90 CA 5E 79 9B
 13 1B 06 06 F7 55 A6 20 62 36 2E 9A 8F 23 E5 EA
 EA BB B2 57 E2 41 B5 8A 79 76 C7 F6 0B D2 05 D6
 B2 96 8F 1F 0C 90 39 7C 3C E3 81 E5 D9 F1 B1 18
 A3 D4 F2 70 26 14 68 EA E6 5F 1D 77 73 FD 48 B4
 DE A3 F0 FF 20 70 D6 81 77 DA 04 66 03 84 C0 EF
 0C A9 41 D9 47 29 EA 5D DB 30 55 8A A4 F5 19 31
 99 44 F2 62 E9 CC 99 86 43 16 5E A4 B6 31 6D 5B
 BC 96 54 E7 96 8B CB 73 37 DA E0 16 A1 FB E9 1A
 BD 7B CF 07 7C 58 C3 FD 2C 56 EB 86 08 05 24 55
 C5 6A 37 BE 08 DD D8 A2 08 E2 B9 14 52 C0 EF 30
 2F 4C 35 30 47 96 8F 63 9B 30 C7 2D A0 8C F6 BB
 F4 A6 CD C8 FA 28 E2 DF F1 60 0C CB 7C 40 32 0D
 2B 8B A5 B8 2B 25 5C 17 9D B3 88 59 E7 44 5F B0
 60 8B 13 77 50 72 0D CC 5C 77 8A AF 45 60 84 2F
 DD AD 31 8F C8 5D EC 52 66 D5 4C 56 16 B6 F1 91
 A2 79 46 FC B9 44 34 48 E5 19 5C 10 7A FC 5E B0
 42 D5 2C 92 3A 71 FF D2 48 C7 76 DE 86 2F A1 DC
 DE 0C FF 69 39 A3 B4 25 2D DB 1F 92 60 83 05 1A
 2C 16 B5 BA 58 64 66 65 14 CA 5A FC C7 9E DD DD
 14 41 AA 7E E3 12 A1 5D 25 49 AA 19 E6 07 A9 62
 A7 06 1F C4 2B 58 31 11 63 4A 6B 38 E0 EE 80 78
 4C A3 AF F4 7E 46 5E 87 AC 92 C4 7F DD B2 99 B0
 8A 10 57 E9 E2 4E D8 16 8B D6 61 12 50 BA 94 B5
 D5 27 29 78 99 04 AA 92 EE 5C CC E4 ED E7 CB D3
 4C 15 77 96 BB 2A 89 6B 22 E2 C2 1C F0 63 D0 34
 E0 78 7D D1 36 12 43 FF E6 47 EA AE 1F E6 1E 56
 8C D8 D3 49 FD A4 17 FD 88 79 F7 6A A3 6F 66 A6
 AF 0A 66 42 E6 93 0B 8E ED 97 DB 32 E9 BB 22 4F
 2D 13 AB 4D 22 67 FD A8 4B EB B6 5E 7F F2 D7 2D
 98 95 C7 CD 13 1A 23 D2 36 39 7E CB 6E 9C 2B EC
 5C 51 1B AE 0A BE 01 B2 AD E1 CD 23 24 1A F7 EA
 D8 7B 72 86 EC C0 98 8A AE 4A 1E 28 45 2B 17 74
 B5 42 32 04 E4 43 97 11 25 E0 19 15 53 17 C7 3B
 9D 1D C2 E6 AA F0 D2 42 21 AF 2A 13 1F 3D 4F 34
 41 30 7C F6 F6 8F 75 22 78 7D 4E AA 4A 37 11 7B
 FD 81 70 25 C1 96 DE FB D9 16 B9 88 16 D1 C6 D0
 EB 91 35 96 FD F5 5D 87 C7 37 7F 29 6B 5E 54 29
 3D C9 FF 1B E1 02 CD C0 CD EF D5 50 EE DB D4 16
 F2 B6 A5 DA BA B6 D0 EC 22 B8 2A 18 36 92 40 19
 37 5D 3F 4D 9C 55 46 2C 8F 91 09 3D 58 1A 30 D1
 7D A1 0C BA 3A 8D 00 80 44 01 0B 14 9A BF 90 7A
 A4 AB 07 76 0B 39 BD 90 5C 05 E4 9B 35 64 6C 6C
 C8 EF EC 67 24 33 2C 10 72 ED 82 1C A9 F5 10 52
 66 B2 AE FE 5B 5A 44 D8 41 4B 6B 60 CA D3 03 2D
 AA 72 4D 16 0A C8 92 DE 65 1E CA D6 DE 5B AB F9
 22 01 69 33 68 14 44 B6 35 A0 75 87 2A 9A 56 0E
 57 77 3D 89 C3 7A 4F 41 4B 7A 6B 33 58 4C 00 A0
 73 57 E6 FE FD 10 DE 71 E8 EF 49 F9 CE 38 76 79
 ED 5C 8C 70 87 F0 41 05 F7 9C 02 EA 19 27 C8 F0
 F4 58 6A C8 0F EA F2 D6 31 3C 2E 67 CB 90 AC 72
 A3 F4 D7 17 35 06 1D 5C BD A9 96 FA 4D 3E 11 4E
 08 02 5F 56 CB 29 47 2E 89 FD 18 2B C4 6E A4 12
 4E B1 DA 85 23 65 7C 2D 71 99 7D 10 8A D2 AB FB
 D8 3D B3 A9 5D F4 2D 48 28 DF 64 E5 8F 37 57 A8
 15 03 A5 AE 7F 37 5C 93 33 79 A1 C2 E9 4B E7 F4
 7E 5C B0 78 6E 03 6D E6 76 D6 FF 2B 5A E0 23 9A
 69 3F 18 B5 56 5A E1 45 99 B6 B3 D1 E2 CD CB 6A
 DE 7A 97 C0 80 A9 EB 1E 2F A8 6C A3 44 77 35 DE
 84 37 12 C6 31 EA 4D 94 39 20 6F 4F 14 5E F2 C5
 37 79 83 7F 54 35 9B E7 18 D6 7E CA E3 75 10 BB
 EA 3B 87 94 E9 73 FC 61 D5 AE 10 24 99 0A 93 23
 BA 3A 18 3F 21 88 AC F9 E6 36 5A 15 32 A7 AB 32
 21 06 84 72 DC 4C 85 7C 5A E7 00 DC 07 88 0B 95
 AC 7C ED 0D 73 4E BA 45 1B 7B E4 CF 96 8B ED 91
 98 8A AC CD 71 27 3C B4 E9 EB 9B 04 D7 66 C3 7E
 F2 9E A6 88 A9 19 7C E1 92 2B E1 D0 BC E0 6C F9
 A6 0C DD 69 32 5E 0F D1 5F F2 4D 1C 74 21 58 FD
 43 33 7C 89 2E 4B 4F 60 B5 1A C4 EF BB 33 4D 61
 0C C2 2C F3 D5 32 54 D6 16 F3 38 C7 E1 77 B8 89
 05 28 6E 04 09 A0 F5 8A 92 4E 5F A2 D5 D4 6D 17
 1D 25 C3 D9 5C AA 3C 9B 3E BD 8C F1 F8 4F 43 06
 F9 2E D1 AF 77 70 EE EA F8 D4 99 AC 2B 70 63 BA
 1C AB 6C 12 49 C4 E5 F7 11 D4 7D 59 3E 20 23 46
 11 F2 44 BC 02 B7 0B 27 E2 EF 8A 70 D6 9E 88 64
 B0 AD 09 85 F9 5E C5 93 E7 5C 7E 9B AC 03 5D F9
 32 72 98 69 13 7C 18 F7 B1 F4 91 AA BC ED C5 0C
 0D 00 5B 51 CF CE 47 23 FE 69 39 97 65 4C 36 A3
 CF 3B D8 75 3D BC A7 A1 74 71 6E 8D C2 D8 FE 02
 F5 78 A0 79 60 DB E9 9E 35 D1 C9 6B E8 B0 88 CB
 9C 51 10 E5 D5 81 AE A4 75 5D D7 51 6A 35 BC C5
 64 80 8C C4 E0 46 6E 55 83 8A DA B0 C3 9A 73 34
 3E 2B 9C 13 C7 9C 6F E4 91 98 C6 E2 28 E8 39 A1
 F8 FD 61 BC 46 CC 06 30 13 B7 0D 95 95 D7 7F 1A
 50 C8 67 04 B6 19 43 B6 ED 86 EA 2E 6C C0 D3 E1
 57 9B FB 35 95 46 4E DD 7B E0 DE 2D 8B 6E D4 D4
 F6 99 9A 0A 7A 4D A1 7C D1 2D A0 03 6F BF 0B A1
 FB 1B 8A FB 8C 9D 82 0C 08 46 F9 37 62 5F E2 B5
 3F CB 32 68 3D A4 00 63 52 09 CC AA 87 8D 42 00
 CE B2 90 54 E4 23 41 45 57 82 FD 2F F1 06 FD 0C
 11 E3 1E 88 8F 99 B6 72 94 B5 AB D2 2A F7 11 AF
 DC 31 9D 33 C5 43 6E C1 CE 86 29 36 37 81 DA 56
 15 34 67 8D BB E1 B6 E1 5B D0 2D 98 E1 86 A9 A0
 8A EE 7A A3 44 F0 84 70 9F BF FF F4 B9 5E C7 92
 A7 FA A1 E4 AD B5 35 05 74 2A C5 2F 73 30 8C E4
 14 6B EB C6 8F 25 9B 0D 12 76 7B AF 4B 3A 09 0E
 F1 F8 0B EC B3 17 AC 64 0B 2B 68 94 E7 29 07 AA
 1B 80 2E 0A 8B 90 09 45 A1 59 43 83 D4 23 3C 7B
 0A AC 87 57 4B 16 2C 6E 8B F6 FA BB 4E 45 3A EA
 E8 7A D5 53 9D 82 0E 68 72 DD FE F6 2C 10 82 23
 2E 6B 38 09 B7 D4 E2 FC 2E 45 16 11 2F 77 2D 10
 25 0F 17 77 AF D4 06 51 AB CB 20 55 49 8A 2C 2F
 57 C9 A5 DE 97 C0 EE 7A 8E A4 54 59 4C E9 17 35
 3D 75 DA 57 C2 BA 9A 77 40 2A C0 64 4E CF AE B9
 85 A6 33 B7 9A B8 59 41 C4 AD 53 D0 71 73 A2 D2
 D6 A0 86 C1 AE 82 9E AC AB EC CA C0 D7 D0 36 29
 07 C1 DF 6E 62 75 22 B0 19 DF CD 7B 5E 30 6E 80
 13 71 CB AD A6 A0 49 53 09 80 2C 9F 55 71 90 6F
 E6 07 AC F7 84 51 8A 4D FB 51 7C 1B 94 65 47 84
 8C B6 DB 39 66 4C 35 16 BB AF 10 E0 3C 9E 46 04
 32 EE C9 43 3E 57 63 D3 7E 98 30 12 4D 5A 70 9C
 3D B7 B6 E1 47 DA 94 76 D0 EE 84 BC 96 00 FD 60
 01 3F 00 1C 33 9D AF CC 86 BE 6E 9C BD 77 A0 8D
 47 B8 C5 CF FB DB B2 A6 3E F3 7C DA 50 C5 D1 64
 A3 7E 23 7E 9B 35 58 0C 27 22 2E E7 5E 1A 7C 42
 ED 9B 70 2F B8 EA FA CC F3 BA 38 9D D9 C2 2F 79
 92 4D AD 2B 53 E5 65 D1 28 A1 58 9D F1 F4 B3 ED
 DA 54 34 8D F0 94 CB D2 D2 A0 82 DC 91 6C AE A4
 24 7B 99 A8 DA 84 70 4D 0C 5A 71 3D 28 4A B2 AC
 28 39 DC 95 AF F1 A2 F9 9E C4 D9 8A EA 25 43 81
 42 C7 74 92 8E 84 7A E3 74 20 D2 A1 B9 46 70 D9
 AB C7 59 AF AE 6A AB 81 0C C9 1A A4 B7 F3 8D D5
 03 BF 62 D6 0E 80 D0 47 D7 1D CB 6E 98 6C A5 E2
 70 1D A0 FE 7F 09 E6 1D 3A 88 04 2F 35 C7 64 D0
 22 1B FC B3 03 30 87 21 5D A4 17 17 DD DE 15 73
 45 51 3B A6 E5 B4 A6 87 D1 C3 A9 8B 7C B6 8F 34
 87 BB 4E 44 71 6E CE 13 C9 2E EA C9 31 9E EF 04
 3E 11 1F 85 73 C3 C6 68 D1 81 7C C2 57 A5 B7 9D
 DF 4C C2 5F FD 89 3E 7D 1B 42 7A 2C EE C5 E0 12
 33 32 76 2D 04 C1 E0 4E A2 B1 88 D9 F6 1D 5D 89
 D1 62 0B 5F FF E9 FD AF A2 F7 45 00 53 3C 6E 7B
 B6 1C E3 78 9C 4B 11 78 82 FD B7 DF 9E C7 A1 09
 A2 04 A3 17 7F 2B A6 F0 C9 03 86 70 6B 39 F0 C3
 6C F1 60 BD A3 66 57 03 CC 49 82 BA 1E 4F 33 9B
 A8 75 02 19 F7 E3 85 87 08 05 E6 5F FC 9F 10 7C
 A8 08 39 28 44 21 9D 87 B3 5D 89 47 B4 B8 6E 62
 C6 98 51 7C 4B E4 2C B1 20 5C D8 D8 2C 78 55 46
 58 59 E1 CC F2 65 50 F3 A4 69 69 C9 D2 84 6C 36
 00 DE 4F 7D E1 34 8A 99 E3 55 5F 02 C0 4B B2 C1
 73 93 07 30 07 E3 22 54 C0 42 22 E1 A3 09 18 CE
 CF C7 FF 2A 1B 59 0A A6 3A F0 EC BB 58 52 08 73
 A9 A8 E5 BE 9C 69 B8 EF 28 C9 2C 91 6F E5 20 77
 87 50 F4 1E 04 1E 18 43 23 E7 DA 40 99 60 F8 38
 82 DF 3F 87 15 51 56 5D 5B E9 A1 51 CB 8C A4 1F
 5F 23 DC 84 49 9F 12 02 6D A7 12 5F 3D 3F 87 AA
 6A EA 0D C0 A1 DF DA 59 E2 3F 1B 6A 55 FE 0C 4F
 E2 BB 2A 30 52 20 DA D1 62 FC 10 8E 78 33 C7 A6
 66 45 A6 AE BB 3D 60 1D 02 D1 3C E2 EB 18 EC BC
 3B 43 DA F7 39 D3 06 3A 28 A1 D5 97 80 5C E5 D8
 32 BE B8 6D 55 A8 29 03 68 5C D8 59 68 FE B0 25
 E3 45 FB 09 AB 71 9C CA BB C8 92 10 1C EC 3A 4A
 1E CB 73 F3 7D 0E 1E 20 5C D8 A8 8B B3 E3 84 37
 E4 44 95 F5 81 26 07 6A 32 0E E9 8F 65 DF 24 D0
 B6 76 5A 36 A0 F5 CF F5 B8 4A A8 37 92 F0 F1 39
 F4 29 54 5A E9 E5 81 FC A7 EA B3 A2 99 9C 53 1A
 62 0D B1 4E 5C 76 FA BA 90 A9 B8 F8 FE FA E9 15
 64 9E B8 B6 99 47 8B 69 4A 04 8C DC 27 B9 EC 37
 24 D2 C6 EF EB A9 44 FB F5 C0 80 E8 BC 81 9B 82
 70 51 C5 9E EF 30 54 CC 88 1D 07 EF 70 E9 05 70
 B0 1B AF 98 79 FF C4 BB C5 D9 E7 8C 4F 86 85 52
 25 92 15 2C A7 24 D7 21 76 B4 71 3C 31 A3 36 A0
 87 28 0C 92 F7 EB 19 AE 2A 3A 0B BE D2 DF 62 93
 B9 A6 D8 67 AA 29 D3 3C 88 9E AC E6 7F 92 B8 A2
 AE B0 6F 58 83 56 86 74 15 46 27 0C D8 B7 FB F9
 E7 E7 34 52 27 ED 04 53 B1 C9 23 F7 75 C2 E2 8F
 E5 A5 A8 7C D8 E8 C7 5F 85 E5 75 32 13 81 02 7C
 6E E5 3B CB 01 D0 76 DB 24 97 79 27 91 CD 92 73
 FD 9E CE CD A8 D8 CD A2 F5 56 D4 85 BA BB 0D EF
* End 3019415679 61228876