* LTspice Encrypted File
* 
* This encrypted file has been supplied by a 3rd
* party vendor that does not wish to publicize
* the technology used to implement this library.
* 
* Permission is granted to use this file for
* simulations but not to reverse engineer its
* contents.
* 
* Begin:
 3C 5F DC 73 3E E6 A4 48 E0 41 D3 FB 5F A5 F3 3F
 43 E1 D6 5D 23 27 B6 5E 52 D7 3D B9 33 E5 55 24
 D8 04 A2 4F D9 89 A9 28 22 3E FF 09 AD 62 B0 F5
 BC 1F 03 A9 65 0C 07 E0 EE BA 5C DB 78 C3 3E 97
 E4 04 66 C8 ED 4A 00 6F 19 4E D2 FC D2 6B 24 D9
 22 5D E8 D8 25 DE 57 1C 97 65 AB 10 30 50 59 0E
 9C 3A E5 27 2A 5F DA 22 EA B4 3B F1 26 BE F2 B2
 2F 49 99 D1 CA 6F 30 1B A7 A4 8F 63 29 11 03 1A
 AA CA 11 7A 95 47 C3 23 95 DD 20 6D F4 F6 A7 7B
 78 BA B8 53 AC 6A D3 6E 2D DF 94 F1 C6 54 B1 BD
 15 FD 2A 88 AD 73 BC D3 50 E6 CB D7 BC 8D 94 EE
 5C 4F 43 AE A0 23 19 25 36 D0 46 19 61 77 7E 0A
 BD 93 BA F5 82 35 0B 53 E2 C4 71 10 77 95 E2 54
 85 B4 31 DD C3 A1 C6 67 D4 E1 CD E8 45 A4 59 51
 21 15 41 BF D8 6C AE D1 70 27 AB FE AA B8 F5 46
 F8 33 84 1C 7D 02 DB 71 5B FE 3A D7 99 BF 2B D8
 D0 B1 92 10 54 49 89 D1 DB E2 FF 2B 67 E1 60 37
 8C 1C AB CD 2F 88 C6 4D C2 9E 7E DE AF F2 C5 ED
 7C 35 25 5E 41 5D 49 4F 6A 46 60 4C 26 9A B8 68
 B9 92 30 D4 44 E0 22 B2 4D D5 7A 4D 52 AD A8 A7
 03 08 09 60 48 EE D1 7E 60 AD 39 E7 EC 0B 61 D6
 6C 13 83 E7 6D F9 D2 D1 EE 9F F5 C7 C6 AF 7D CB
 47 14 1E C3 F4 5B 03 86 51 39 96 F0 E5 1F 47 FE
 8D 04 15 70 CD 16 20 46 EB CD 4D 5D 92 4D C4 A8
 9A BC FF 1C D2 A3 A8 BD 6F 15 1C D1 52 E1 CA 8D
 1C 24 BA C2 E5 4F 50 B8 84 C4 15 AC B0 EC A5 2D
 90 20 E8 FC 01 D2 30 49 1A 72 4C E2 99 10 F7 5F
 93 12 F7 AD 94 BE 14 52 CA E5 15 6E 12 19 73 9F
 7A CD 1E D7 DD 89 14 CE D8 6B F8 35 FD 25 91 06
 1C 06 44 30 64 0F 42 D1 33 C4 8D 72 81 4F 58 38
 7E 9D 1C EC D9 EF 2E 00 8F 6D F8 62 3E 37 C5 4B
 6C 22 E8 A8 B2 5B 70 B4 78 9D B5 66 DF B1 E8 66
 4F 3D DC AD EC 61 7F AF F5 02 32 A2 E3 25 E2 51
 41 F1 91 71 55 8E 1D 86 F3 71 7E 8B 3C EB 56 60
 71 75 D9 63 9C E9 B6 EB E5 87 31 9F 3D 1F 7B 09
 39 F5 B8 AF BA A3 6F 66 88 DE 7C 86 9A 62 88 23
 C6 F0 FC F6 E6 37 64 FE 6D E3 82 F4 9C 05 10 44
 C2 B8 18 1E 76 29 BB 03 F5 9C 11 CF 28 1A 9E E1
 7D D3 2A 1D 4D E9 44 09 C7 7C AB 57 47 D9 2A 63
 53 F2 C1 E7 80 B2 75 24 8A F6 06 9B 96 EF E9 FB
 54 19 45 B2 C7 34 AA 87 56 84 83 8D 1A DB 4A BA
 BA 42 A8 CB 98 34 D2 D5 9E E1 FC BD 90 F8 F0 CB
 95 BA 73 B9 4B 7F 29 7A 93 F3 46 A4 B4 52 5C 46
 B8 EF D1 91 47 6F 80 FF 3B A2 C9 D8 B8 43 C4 0D
 90 6E 7A D2 D1 8F 1B 4F BB 64 AA FE 14 2D 55 B9
 4B 2E 70 98 19 02 A7 CF BF 40 85 BC 71 DD 86 E4
 1E 87 A5 9F 5B 50 1F E2 24 85 DA B1 6B 8C 10 34
 9F 37 6D 4E 55 B9 00 A6 B6 D9 8B 0E CC 77 D5 EC
 EC E9 D6 C4 A7 E6 83 6C 19 F9 DA 28 AC A0 B4 6E
 2D BC CD 89 8C 03 79 3C B8 F8 F9 7A 08 CB F0 2C
 E7 6C 0F F4 64 66 20 33 66 97 E5 FF 0E 30 14 5E
 CC A9 CE A5 84 33 21 CB 82 82 B7 A6 75 6B C1 48
 8D 23 EA 50 E8 24 8B 9D 12 5A 5E 94 90 AD D3 C0
 77 9A CF 6B 87 C3 0A 26 1D 4C 0C 18 C5 55 5C 15
 12 C1 35 E2 33 6B 01 A5 96 DD 35 21 FD E6 90 90
 64 35 65 9F 4C 9A BD 00 7A 68 B2 E4 BF 3D AD 34
 76 40 6F 99 6D C3 1D 1C 9C 1B E6 84 9A A0 44 D2
 02 B1 3B D4 BF 26 4E 75 CE 15 C4 DF E8 FC DE CE
 77 09 C7 3E E9 06 CB B3 4C 32 E3 14 B7 34 14 BF
 66 F1 05 8E FB 19 C7 A4 13 59 27 4E FB 98 32 52
 69 5E 45 20 F9 E2 EB ED 94 32 A1 A3 39 A7 A1 DF
 27 26 EB 2D 0C 98 EC 55 B6 4C 9D F5 9A 53 9E E1
 EE 26 14 82 31 8C 45 F5 2E C0 80 84 CC 0D 6C AA
 FB ED EA B2 B0 89 E7 8D BE 31 74 92 E0 E7 6B 42
 C9 F1 7A D4 7B 86 81 F5 32 8B 5B 53 BD DB D5 C8
 52 30 07 A4 95 9B 35 AF 0A EB 35 0C CC 37 C4 31
 0B 6C F9 4F 4B 03 9F 37 88 1F C8 C4 2D A8 89 B9
 96 9B 57 67 58 DD 33 7B 7C E2 BF 90 EA AE B3 0D
 E4 11 6A 46 19 0C 08 04 84 24 84 71 DA 9E 3E 90
 9D 3F 71 8D 6C 95 86 46 58 ED 6F 18 29 19 F4 1C
 AA 94 B2 6B 4E 1A 17 C6 FD 16 92 AF 39 16 C3 92
 84 A9 20 BD 06 93 4B 9D 1E 42 96 62 F8 7D FD 2E
 68 6A 2E 67 65 A5 B5 CA CE B3 FF A9 A1 9E D8 7D
 61 CD 10 07 FC D0 D0 38 1B 39 AC 4A 5D 07 D9 17
 EF F1 F3 B8 6B 7D AD 0F 8D C4 B0 22 69 92 6B E8
 27 22 48 F6 F2 A6 CC C9 1A FF 43 71 C3 FC BA C1
 0E 68 9F D0 1F 57 4F 95 A8 1B 25 FF 0F 46 FD 89
 5E 45 A3 DC 05 D7 E2 7F A0 8C 2D 5A 22 A2 B4 1B
 35 36 6D 3E BC 7C 90 30 B4 99 F7 26 37 D5 81 B6
 F6 93 4A C9 21 78 DB EC 7C 51 33 03 DB 8D 40 1E
 2C 66 F1 57 BE D7 14 DA 2A BA E9 38 0A E1 C3 06
 42 C6 08 D2 D1 38 F9 16 D0 25 00 AB 90 84 A0 57
 50 52 00 FC 53 8D AB 28 82 D7 20 4A 0B 5D 30 B7
 3C 26 DD 5B 3D 95 91 4F EB 0E 49 E3 9D 6E B7 0D
 ED 90 8D BB 4D 2B 64 E8 38 8E 73 F6 EA 59 67 F2
 04 18 76 1A ED 76 7C B5 D7 2C 96 34 B7 24 40 5F
 B4 62 85 3E 4E 73 10 62 01 F4 42 7B 69 44 90 05
 B6 7A F6 A7 CE 09 05 FB EE 14 5A 77 2F 43 17 73
 01 BF 82 C4 0A 09 28 2E D9 23 9A 51 44 F3 F7 48
 9A DF 9E 07 9A F2 22 DD E4 48 DA BF 42 B7 0A A9
 D6 85 DF 80 93 EC 9E 49 30 96 23 0A CB F6 24 FD
 81 4E 60 D4 E7 B2 C2 88 B3 11 28 92 23 B0 41 89
 98 26 37 76 00 20 A3 A2 08 3C 6B F7 BE E1 65 BA
 F7 33 41 4F 8D 22 5E 89 FB 80 14 E1 E4 15 1E CA
 8E 76 B4 77 A1 A7 84 E4 9B 60 26 7E 51 91 A1 39
 F5 84 DE B3 0D 87 A9 74 A0 E2 2F 69 82 DA 81 5B
 5D 31 4A 16 DA 79 1A 37 FF 39 B6 65 8E C1 9E 3C
 85 1E A5 F7 9A 92 87 BE 25 8A 93 D5 22 47 23 09
 D5 63 EC 71 33 45 A7 16 18 79 84 00 75 49 45 54
 89 E6 2C 87 4D 5E 75 5B ED CC BD D7 15 A6 45 18
 9C FF FC DA E7 70 E1 7A 48 7A AE 99 CA 85 41 63
 F0 E2 8A 39 63 75 29 C4 74 28 FA AB 72 CD 97 45
 F8 60 1F 2B E4 B5 AA 36 46 70 16 7C CE 54 C7 AE
 70 4E 6D 03 7E 24 DD 53 9B 48 23 21 06 35 82 31
 A1 C3 94 93 00 82 2D 54 C5 87 64 D4 AB 19 B0 94
 0D 54 D5 4D F8 26 50 1B 6E 3A 0F A4 28 C7 F8 14
 BB 39 E8 58 C2 68 81 30 96 C3 84 64 48 7C 81 82
 DD 7E 65 8F 4F B8 79 D9 B4 1B 52 34 15 E4 76 7F
 AE 4D 37 7D D3 11 84 28 98 7E 0A B7 09 B4 92 4C
 0B A8 AA C1 F5 EE 16 4A 3D CE 35 B4 A9 8E A0 56
 9C 2C B3 22 3A 6A 22 3F 4A 71 90 8A F1 D6 F8 11
 47 05 D0 AE 01 E2 69 B6 E6 E3 E0 2D 95 83 72 AB
 55 76 B6 BF 57 7A 24 C7 AA 9D 3D 90 52 3C 37 04
 29 5A 9C 1D E4 FD 8D 34 A2 26 30 4F DB 62 3A 34
 2A 96 1E 10 62 D8 F2 3B 2A 7E F9 A1 9D 01 1D FA
 85 54 27 59 A9 F1 C3 E7 4F 19 54 84 38 25 E5 8A
 38 F3 99 DF A0 1B FA AC 6B 56 1E 42 B6 87 F0 49
 9D 5F 7A 2C 23 F8 26 8B B1 9B 09 48 C8 37 7E 4A
 65 99 FF A7 0B 39 2C BA 36 E0 85 B6 BB 0D 9E ED
 F7 F5 2F F5 38 01 B7 1C 48 9A 15 CA 58 D4 8B 5D
 BF EB 31 EF 2D D1 F8 0E 95 ED 82 33 FE E7 22 D3
 3D 51 FD 2E C0 44 C5 6B 8B 11 A1 4A FE 52 D9 E6
 EC 45 47 60 72 A9 E1 81 22 63 A7 1B 3B 33 78 20
 42 E0 D6 F9 96 CA EE C2 7F CE AD 4F 02 0F A8 F0
 12 AE 5D 8E AB 77 13 48 FE F7 7F 16 40 E3 8F B1
 85 6D 6B 1A 71 A1 1F 24 00 38 CD 97 63 16 B3 D5
 6C DA E9 B7 FF B4 2B 69 AB 99 7C 35 05 F5 80 CE
 0C B9 15 79 D8 09 49 43 DE 34 72 DE 34 7B 2B 8D
 84 37 0B A8 E9 A0 23 B4 74 E0 2A 0E 05 EE A6 94
 A0 AA 07 D6 1A 31 96 52 B0 C2 7F 74 A1 F4 96 36
 FF 5C 25 4E 50 56 47 BC EE 4F 86 7A AF 3F A9 EE
 97 38 0F 6F 65 1D 9D 39 78 7A 8F 91 3B 04 BD 16
 FA DE D3 9C 58 BB B6 9F 19 CB E3 37 92 E4 73 8E
 39 86 40 55 73 24 FD CD B7 F8 03 E5 3E 9B C9 63
 FC 5B E2 06 AB B4 6C D7 51 B5 4A 39 FC 14 96 EC
 8B 5F 24 56 69 4F 1F 4E 74 60 4D 57 15 6E 5F 79
 E4 DD 6C 0B 93 1D 53 A5 B0 E9 BB 4A 72 8F AE 31
 E0 40 CD 15 17 3F D8 2D 38 ED 80 BE 6E 8C 64 36
 14 03 B7 B8 5F 82 C7 19 82 58 43 3C BF C5 63 78
 A0 A7 E0 2F 97 C2 0A 11 8D CA 8B A3 98 D1 21 02
 DB A4 7F C2 62 70 FB ED CD C9 6D 59 48 98 F4 F5
 25 8F 77 B1 73 BE 81 50 3B 2F AE 1B E0 21 C6 75
 FC 0F EA 5B A8 42 84 5E 62 86 DA 26 F0 A1 B1 AA
 C4 12 58 B4 D2 BA A8 53 03 FD 20 6A D4 A3 29 C8
 67 88 3D DE CB 5E 9B B2 9B 9C 9C BA 6D 59 5A 96
 7F 81 78 81 DA 2A 34 88 6B 65 20 63 C1 C1 13 D1
 1B 3C C1 AE 1C 7D 96 A3 26 AB F5 60 6E 40 4B 5E
 57 16 93 69 2D 76 6F 32 AF 9D 49 3E 0B 7D FC D6
 0E 4A D1 31 03 FD 9A 28 E8 AB 71 5D F1 44 4F F1
 72 55 D9 3D 03 46 79 41 9F FA EF A0 18 54 94 49
 1C 2B AB 86 B1 C0 05 C2 2F 9F 6B 41 59 DE BF 66
 DE 62 C9 BA 65 DA DE 19 B7 1E 5F 73 60 6F 83 2C
 91 6E 21 92 7B B6 DC 40 68 7E 2A 76 7A D2 D4 A9
 E9 26 2E EF 7B 16 3D E4 D5 A4 52 CD DA A8 08 42
 13 14 68 6A FE A9 EB 4C FE 53 2D A8 2D A7 04 A3
 53 1C F2 1D 07 D9 38 DF F3 A7 2F 6A 46 23 BE 46
 3B E2 F3 CB 38 5B C6 9E 10 98 56 3E F7 F4 8B C4
 3A 74 B7 29 E3 56 47 37 5C 8F 54 4C EF 8D E6 A6
 9B F4 3C 16 49 2E 7B A2 06 18 D1 F0 AF CD AE B9
 05 AC E3 A9 71 A1 6B 44 9B 7A 59 4E 44 9B EC 8A
 E7 91 89 09 82 95 80 23 BA 36 85 EB 50 FC 0D D1
 DB 62 D2 BE 0D B5 E8 55 F2 B7 36 D0 04 C9 3A 83
 D3 EB 19 12 67 84 7D DC B1 C7 CF AB DB 18 5C 70
 5F 3D 87 27 C1 E8 9F B9 6B FD 30 61 37 73 B8 66
 4D D1 AD 39 21 09 CB AE F1 7A 4F FB F5 38 F6 8F
 76 09 91 19 0D 2F FF 27 FF 84 12 11 1C 39 EB 28
 E1 D2 62 4A 8D 70 E7 51 45 3A 4A 06 92 4F 9D E5
 38 68 C3 FC E8 DD 01 64 D0 86 60 D9 58 47 5B 0E
 38 94 C7 CB 45 E3 DA 91 69 C0 CD 8F EA E0 A3 40
 36 09 71 5C C9 12 09 F0 24 31 D3 F7 F0 D3 88 09
 08 F7 6F 23 4D F0 07 53 6C 82 32 83 FE 2B AD F2
 41 61 18 6F 7C B1 87 E8 A2 F1 03 CD E0 12 84 12
 B7 04 06 94 46 E1 00 2C 30 01 26 4F 3B 2C FF A1
 CD 5F 5B 21 D6 E4 83 8D F9 80 9B 7D FC AF 77 B1
 B9 3E A7 E8 DE D1 D5 6B 1D 0F B5 5C 93 BF 24 87
 45 C2 59 EA FC C7 3E 35 69 5D 5A DC 54 14 F5 80
 2A DE AE E4 89 91 4B 36 CA 30 1F 6E E9 D4 A0 4B
 A8 30 19 E0 1D C8 51 4C 03 B6 11 41 2F 0D 9E F8
 22 B1 5F 1F 51 0E D6 82 EA 1A 09 7D 41 4E 21 F2
 E9 63 19 28 1E 0F 26 7C 68 6B 3D B3 5C C0 C7 11
 F7 0C 45 99 5E 9E 13 35 A0 BF 13 84 E8 43 32 C6
 BF 56 04 CC FE 4E 00 6F A1 54 E2 A4 9D 2C 95 97
 DF 36 BA 36 A4 5E B3 9C 2D 53 E3 8E 00 F3 9F CA
 AA 9F 82 58 5E 68 11 77 02 5B 17 81 E2 5C C8 4A
 12 A2 C9 FE AF C7 7B 68 1E 72 54 6E DB 04 A2 FB
 0F 3E 82 92 3E D5 1E C4 55 9E B5 6D 19 4B 0C 5D
 A2 A7 5D 14 2E DA DB 09 5B 44 9E 68 BB C0 F4 F6
 EB 21 B9 5D 59 91 D3 A5 32 87 95 D6 4E B4 A9 8F
 8C 26 1E 50 D0 FB A2 D5 9E DB 7C A7 75 76 F2 EA
 76 88 04 C4 0C 20 AB 04 2E C0 49 C9 2D 04 B4 71
 62 58 19 F2 24 A2 A8 05 66 13 EF F6 D4 53 2C 8A
 91 B9 01 D1 0B 9E 6D B5 67 C9 2C 01 20 7E FE 0F
 23 01 02 23 45 06 C0 9B 37 67 BC AD 41 7D 7F 64
 6C 37 C7 18 D3 E9 9C D0 81 92 6C 8D C2 59 C5 10
 67 77 3A 87 4E F8 E1 F1 35 61 BE 19 F7 F6 75 83
 0E 74 45 51 81 CE 08 F0 D1 E1 4E B7 5D DF 45 CE
 25 D3 D5 AD F9 55 3A E6 13 07 2E 9C 88 75 88 2C
 F2 FC A1 73 E6 5B 36 68 06 69 E7 48 25 5A 13 59
 7E D8 45 F2 24 0E 0C 7E 4F B7 F7 CC 2F D8 88 52
 A7 50 37 31 3C AB 97 FF 36 DA 90 9F D4 38 CB 1C
 25 75 DA B4 9C 76 D4 D1 65 42 B7 B8 AC 93 31 8F
 80 7D 15 D0 FF 0C 62 EB 1D 22 07 DB 20 13 60 9D
 A7 0C 21 12 E0 DB C4 BD 74 D2 85 DF C0 43 63 0E
 D2 D5 1E 4E FD 27 EB 51 94 8E F5 70 C8 BA 9B 9F
 80 1D 17 63 F5 A9 2F 7E B9 91 C3 CA 49 FF 58 CB
 02 31 76 30 AF B7 F6 C9 EA 14 28 8C B1 E6 F7 9B
 21 9E 67 72 28 F7 6A BC 0A A6 EE 61 93 46 85 88
 9A 75 53 EF A8 C7 80 68 B4 1E 98 EF 09 4D 07 C8
 14 0B DD 76 33 98 F1 CA 22 E4 AE 4B 45 F8 AA 21
 28 D5 E2 8F 7F 26 2B 40 D6 A2 47 AD A2 96 5B 18
 0B 19 43 67 54 B8 09 7A 31 13 2F AC 42 F1 9D 2E
 D2 83 7A 7D 5D 81 35 1A 04 72 09 A8 C4 6F 44 9C
 F6 CA 1D 16 5B B0 4A C6 CC 65 AC FD 02 05 A4 FE
 92 4D E5 01 05 43 C5 AD 85 68 B2 03 D8 94 51 E5
 C2 7E 80 47 08 FB 95 D8 43 1C 31 E9 18 A5 FA 70
 00 2A EA C1 0B 78 12 E0 64 47 48 6E 64 4E 83 B3
 04 CC A4 6E 3A F5 D3 95 17 5C 59 04 10 08 CF 06
 E0 EB A9 E9 A5 BA E1 6B A5 24 27 33 41 24 86 03
 E5 BD A9 08 50 8A 4A 28 78 F8 94 2A 30 88 EA 28
 3C 8A 98 CB 6B 19 FB A3 2F E9 09 E9 47 01 7C A8
 01 7D 60 E8 DD E6 F4 F2 92 66 8A 20 8B 90 AD A1
 D4 7B 0F 8D 47 B5 DE 37 BD 49 36 05 2B 56 06 53
 6E 0B DF 6F 0E 14 52 52 FF F1 4D D6 06 C2 02 57
 91 39 47 C6 F7 CD B9 8E A4 82 BC C1 F6 85 42 E2
 2D 8B 29 75 97 DA 56 B6 85 0D 15 D7 61 B9 49 56
 B0 46 B5 89 52 32 5C 1A 7D 59 87 C0 63 9E D1 7E
 31 F2 B7 18 2A C2 C1 2A 9D E6 FB BE AC 28 7E E6
 E3 C5 E5 3F 33 BE 10 F6 69 73 CB 23 57 2A 45 2C
 B2 E0 63 FF F5 F5 A5 2C 94 57 D5 2F 1C E8 C3 A8
 67 F9 23 7D B9 71 A1 2E C4 C2 9B E6 15 AC 74 37
 CD 6B 30 F5 20 3D 39 87 49 97 7E 26 6D 54 4A C6
 CB 7B B0 F8 3F 14 22 70 A9 B5 23 5C 85 60 CF 3E
 E6 E4 86 C0 A3 92 46 7B 9B D8 18 29 4A 9A 52 8F
 D1 20 54 16 A3 99 67 8B 2F D7 E5 B3 7D 00 BA 85
 B8 2A 72 BD EA B2 9E 4C 5C 7D 24 1F 3C 9A 02 90
 8B 04 29 56 B8 BD F7 B3 44 B8 42 63 94 0C 60 68
 71 BB 1E 8D 57 69 3A 66 0A 6D 76 49 D2 53 E9 38
 2B F6 33 1F 92 D9 2B 4D A0 7E BF 57 4C 35 15 D4
 E0 70 45 19 83 37 50 DF 1D 33 5B 61 9A 10 DE 67
 81 3A E8 19 4A A7 15 D0 88 BE AF 89 1A 97 CA 3F
 F7 36 D7 1B C0 9F 0B 6D 37 CA D2 2D 4C 39 53 48
 B8 07 1E 59 FB 8C 4E 41 18 73 E7 81 90 DE 4C 53
 12 E5 D2 C1 6C 45 BA 09 56 F4 9B 90 E3 5F 2F 7A
 14 43 11 C6 CC 5A 96 24 CC 6E 1E CF E3 C2 1D 58
 CF A9 A4 5F FE A8 A5 6A 1D DE 55 47 5D CD 18 1A
 06 1D 5B C8 ED D8 9E 0B 7A 11 85 3B DE 0F BD 45
 94 5F E3 92 9D 43 25 53 15 6A FB 40 C5 4E A6 6C
 56 36 0F EE D1 2F 74 15 AE EB 60 82 B2 2A 15 83
 4B 07 44 45 1D DE 01 CA 03 9E B7 39 8A F0 53 83
 57 EF 6E 36 AB EC D5 6F A7 7B A0 AF AC E4 B6 89
 09 1C 69 1E 3A 6A A8 3A F5 9C DB 5F 73 54 D1 7A
 26 61 F4 CE B0 AA 64 B5 6D AC B8 5D 8E F2 5F 5F
 54 AD 91 E1 73 3B 0A 9A 1B 08 55 F7 78 5C 86 FF
 B6 37 D8 58 E2 45 40 DE 58 BF EF 97 E2 73 D0 AB
 1D 07 36 90 02 DF 25 78 B2 D8 9A 8F 67 92 3E EA
 C0 D7 82 D0 31 24 38 F1 7B 1A 31 99 85 5D 9F 7D
 1B 24 2B EB BC 59 02 D8 B5 2C 9B A2 61 0C 02 60
 19 E7 9E D8 11 6D 45 5F A7 53 06 28 32 7D D3 F4
 90 75 24 C4 D0 46 74 7C 5F FF 5D 90 87 0D AA F8
 D6 B5 26 84 27 46 03 35 83 80 53 E0 CC 8D 80 87
 D4 A3 46 B2 FB 0E 59 9E C1 11 A1 17 D8 0A 2B E3
 A7 8B 97 0D F7 39 D4 3A 35 40 37 0E AB 18 E0 95
 E5 F1 E8 CD A5 91 02 71 92 61 35 1A DA 2D 98 8E
 C0 97 40 4A 1D D1 2F 16 43 A4 51 90 34 EB 8A 4B
 A3 A3 D3 EA 1E E1 CF BD 8D C6 FB 9A C1 96 68 1C
 DF 5F F9 81 60 34 01 31 D2 2F AD 8D 4E 41 86 F2
 21 9E B0 36 58 DA 0F D6 2C 33 FA 1F F3 69 10 B7
 5D 85 B6 16 4C 94 B6 F9 75 A2 7F E0 CE 25 91 72
 8D F7 E8 3B D3 A0 64 A4 55 30 E1 86 CA AA 42 EE
 51 12 14 8F FD 84 ED 18 25 75 94 FC A2 21 33 CC
 DE F0 69 17 7A D7 38 9C 14 E8 8C 20 42 BD 94 E8
 2C 88 78 D5 D0 33 6E 2D 8B 43 41 8D 48 01 83 F4
 2B D5 38 F5 01 A0 83 0E 8C BC 31 6D 29 C8 E0 AD
 FA F6 BC 41 21 8A FD F5 21 79 B3 2D 78 B0 2F F5
 74 61 F2 E8 F5 5F 8A 25 33 58 45 49 0C CB E2 36
 B4 3D C2 67 90 18 24 32 08 25 98 98 A7 C2 79 A7
 E1 62 4F E0 5F 84 A1 1D 90 CE E4 13 9B DB 47 30
 ED 8F A2 2B C5 67 73 DD EB B5 1F 0A AF 24 72 82
 EB 40 BE D5 93 92 79 EE ED 4A B2 5A FA 93 A2 03
 2E C6 08 BB E6 F6 29 13 B1 99 04 75 76 A9 14 47
 FB 34 1D 71 F9 F9 6F 71 C5 B6 6C 7C 0E 38 C6 08
 01 02 61 E5 A7 29 FA AB C0 92 F3 83 0F E4 80 3C
 3E 6C C6 66 A4 DC 58 72 8F DA 65 E3 1D 93 FF 08
 79 79 F5 21 B4 97 01 0C D9 3C 9F C7 48 3F EA 07
 1D 1C 55 85 18 D5 E2 93 25 89 DF C5 A3 3C 58 6B
 AB 88 F9 8C FC 9C 0C 33 3E E4 9F B1 7B 79 71 B7
 0E 74 20 20 32 C0 DC B9 23 D8 D7 CC 3A 65 1D C5
 D2 B2 E4 69 27 72 BA 08 33 21 C0 2E 26 39 3B A1
 9E AE A9 4D 09 BB 9D 18 81 09 33 A8 A4 50 F9 49
 52 09 DF 53 2A 01 58 F5 57 99 38 9D 11 FB 92 C5
 86 26 35 6C A0 36 F1 07 50 B8 BE AA 44 15 E9 81
 66 6D A4 8A FD DF B6 FD 3F D5 BD C3 26 59 67 C1
 06 86 48 E9 20 00 85 D3 C4 94 BB D8 F8 0D 3F 93
 F0 56 CC 71 86 45 9F 6C 6B 16 EE C6 25 CF 05 D9
 E0 DB 22 38 FB B3 36 80 58 45 E5 36 4F D7 6C 45
 BE 4F 55 83 60 8B BB 35 02 32 D3 E6 41 CE 0B DD
 98 77 88 A7 7F 4C EB 2A BF 31 96 EF BD 6B 3A 4C
 F3 84 E0 CE EF 40 D6 EA DE 9B 97 88 EE DF 7B 88
 53 58 16 B4 9E D8 53 A3 BB B5 D0 21 25 04 41 D4
 6E 18 FD 6B 02 65 C9 C2 33 64 58 F2 8E 6E 6E 19
 12 6B 70 A4 43 FC 01 C3 A1 7F 8C 4F 3B CA E9 83
 6D 38 00 D6 57 CB C5 BA CD 73 BD FA A3 E2 C0 F4
 F2 96 3F 1A 10 21 F2 E0 53 05 0D 22 B4 A1 38 65
 8E E1 6A 07 26 58 3D 81 EC FB 20 74 4F BE 8F D1
 FB EE C6 AA B6 DF 0D 49 23 03 9F 6E 66 58 71 0F
 D9 74 75 76 19 7F 73 FD 18 E6 AD D0 54 0C 12 2B
 F8 C9 AE 5B 7C DD E9 4F 5A F4 E4 05 64 AE 5D 52
 35 A8 40 C3 F6 D8 BD D5 56 3E 10 E0 75 78 85 57
 99 64 54 07 F2 B2 93 71 2F 90 5C 0B B4 62 03 F6
 55 F4 76 D2 44 56 8C 4D 60 08 72 60 AD 82 E2 C1
 A5 3C 3B B6 6F E7 FA 19 88 62 1D AE B7 27 7B EF
 5F 09 E0 5C 07 D6 9F 92 86 C2 BB 1B 37 5D A4 C2
 AE FF 13 12 CF 00 CA FF D1 C3 9B BA FB 40 71 75
 3A 9B F4 B7 BF 68 21 57 93 54 B2 26 B3 C6 8D 37
 A5 C8 80 F9 C0 71 E6 D4 B5 24 BA BA D2 A0 1F CA
 DB 40 6B B6 E3 CC 7B D9 8F EE D5 D1 02 86 B0 0F
 70 6E D0 A6 04 57 5B 1B 32 16 32 6A 96 68 8C 59
 AD 1F 74 64 E7 43 58 E8 AB CB A8 58 2A 70 26 40
 46 F5 71 5F FC A0 E8 08 A9 19 A9 DD 00 7E 26 2B
 0C 20 B9 4E EF 43 F1 F3 83 21 94 82 ED 12 07 1B
 A4 A2 EC ED 6C 2F A2 21 5E 59 84 6A 6C B8 91 8F
 0C 74 7D 62 76 5C 2C 4E 4E DB C8 D3 60 8D 91 78
 F6 F0 92 0A AF 0C 32 64 C1 81 4C D9 E7 C3 34 B4
 43 7D 45 68 86 54 46 7E B8 5E 1E F1 9F BB C7 04
 8A 7A AD 72 53 47 6F 23 4B 1E B2 D3 8E DA 7D C7
 A9 F8 99 61 8A 91 3E 40 6A B9 5F 8C FB F5 8F 93
 23 9B A2 A2 24 1C 43 F7 15 02 62 32 81 86 FB A8
 AF 8D 52 91 19 D0 08 0E 89 66 99 F8 71 84 65 09
 9C 51 03 E1 B9 6F BF C6 45 EA 70 A0 13 23 49 ED
 AA 4C 66 85 1A C8 1A 47 2D 30 88 18 79 D5 D4 3C
 C7 DE A2 FF EB 90 E3 2C F0 CB F9 03 A7 0B 15 C3
 C2 4A B7 6E 10 BB 32 73 8D F9 A4 B0 27 20 19 95
 16 E6 07 8A A0 B2 4F A3 EE 40 9E E3 A7 25 4B 1B
 B2 57 27 43 CF 82 0D 08 D4 3C CE 68 A2 5E 38 DA
 5A 44 CF 86 2F 91 65 12 AF AD F3 6E 33 47 2B 4C
 4D 68 D0 20 7F 4E C2 9F 4D 79 8E 33 73 81 BB 8B
 EB E2 75 F3 2C CA D1 8A 82 DF DB AE 75 3E EA A2
 92 E9 88 3A 57 CF A7 08 AF E6 38 3C 12 EF 0F 49
 3F 59 13 09 E7 16 4B F8 D7 41 BD DC 90 47 35 7E
 8B A5 81 F5 1F 60 6D 17 A4 54 B5 9B 09 EB 3E BA
 02 E5 24 D1 7D 5B 77 01 A8 87 F1 2E CE 45 6C 3D
 DA CB B4 92 46 EA 37 D2 F9 6C D2 BC EB 26 3C D9
 29 3C 49 9C 40 65 2E 0C F3 47 22 D1 6B 89 00 38
 AF A6 AC 54 AA 4F EB AD C8 ED 69 16 50 35 55 37
 9A C5 50 E8 2D 63 A9 CD D4 08 91 8C AB 9E 61 0E
 93 39 AC BA 4C CE 48 0C 69 05 4D 8C D2 9E 1F CD
 42 3C 6C 04 F5 B2 CC 4E EC 03 A4 F6 E5 6C 0C 53
 74 EE EC 79 EB 97 D8 2D F5 59 AB 0A 1F 06 2A 6E
 9A 39 94 06 74 A6 C0 5B 1D 6F 20 9B 03 6E C0 0C
 F5 50 8F 05 A7 B9 95 B9 17 EB A2 B0 A7 44 08 7C
 17 FA F7 C0 76 6F F1 28 E9 D6 63 24 0E 98 C6 1B
 23 10 58 AC A4 30 9E FA 1C D9 16 E0 9F 6B 5F 01
 05 0C 00 99 60 80 ED 8A 79 4A 19 F9 B7 EC 54 6C
 28 75 F0 2C FC A9 71 C3 20 47 48 8B B6 10 CE DF
 93 A9 D8 8C C3 9C DA 9D 93 71 9E 22 35 83 FD 75
 09 25 03 C0 15 15 F3 B0 F0 5B 15 B1 85 23 DB 39
 C0 F7 74 B1 03 F3 E2 A8 35 1E 6B 8A 58 D9 6F 15
 27 E4 89 90 B2 80 2E 98 E8 92 81 C0 7F C1 34 4F
 64 39 95 4C 78 C3 A8 01 D4 6F 64 17 57 D6 89 EA
 D5 80 70 C1 00 C8 F8 C4 53 9E 38 3F 93 46 69 BA
 17 20 D5 87 3F D0 79 29 D2 0B 37 A6 47 FA BB D9
 BD D6 73 5B DB 2B F8 E0 CA 21 BA 38 6C EC 02 6E
 D7 E9 37 34 D5 35 7E 74 D7 BB AA D8 30 A5 1D 96
 EA 27 98 A8 19 E0 64 8E D1 05 30 E5 A0 CD 6E 84
 71 04 E5 00 DB C4 72 42 63 55 AB 8A 99 E3 14 71
 76 62 28 92 1F DB 7F DB B2 92 35 3F 5E 8D 04 1B
 9E B6 68 C6 28 9A 05 1E 0F 79 4B 67 13 E7 0B 6D
 46 6F B2 F1 BA 8E A4 D3 AE A4 23 0B 98 3D 3A F1
 DC 5E C7 E7 36 04 3F 64 22 0A 03 80 F8 D1 78 50
 C9 1B 4F 7B B3 F5 98 71 D2 78 C3 73 A1 1F 0B BB
 90 69 85 A4 A8 39 97 B3 C6 A8 39 E1 05 A0 3F D3
 B6 97 33 32 39 CF 0F D8 41 AB A5 C7 EE 99 F3 D1
 F2 EB AC DD 0D C8 0A A6 00 68 2E 09 65 F6 DE 1F
 B4 9C 12 C8 7A EC 98 64 DE 5E 86 B2 5D 14 85 AA
 F8 72 8F 16 C7 8B 82 A0 C2 06 8C 63 74 53 20 21
 BF 6C 03 4C 20 2D 85 FA 8C 07 30 A7 B8 81 76 2E
 C1 0B 57 10 D3 29 74 FA 69 4E CB 81 13 BE A1 E7
 F8 B7 F6 62 1F 52 2C 2B E1 CC 14 EE FB 93 A1 2A
 52 15 23 2B 9A A6 DE 60 AB AF E0 AC C3 DF 1D 83
 23 02 BA A9 39 03 8B 77 BE F4 D8 C7 A5 25 EB 88
 C5 7A 7C A3 3E 9D 8F 20 ED 86 4A 12 BD 3F 1F 35
 0C BD 61 C5 BE 1A 52 F0 4C B2 DC 01 AA 76 70 54
 88 87 57 89 98 64 63 CB
* End 731638004 154714925