* LTspice Encrypted File
* 
* This encrypted file has been supplied by a 3rd
* party vendor that does not wish to publicize
* the technology used to implement this library.
* 
* Permission is granted to use this file for
* simulations but not to reverse engineer its
* contents.
* 
* Begin:
 D9 35 ED 51 24 7F 53 37 17 15 DD A8 70 46 B9 23
 A6 68 45 DB 45 7D ED 70 12 C9 D3 9E 55 F2 C2 E1
 7F C3 A6 B0 0D 6E FE 39 D1 80 67 C9 EA 34 4E D6
 1C B3 E5 BC AF 0B AC C3 83 52 AB F5 AA EC 90 D4
 54 44 99 E5 6B C2 A2 CA B7 3D 65 BA D4 D9 22 3E
 3E EB 98 46 B7 AE 43 BF 86 25 41 38 62 CD A2 5E
 77 42 83 0D A8 19 13 F4 C2 5E 75 CA 24 3C A7 BD
 93 BB A4 42 E0 58 91 F3 45 60 05 C0 A8 EB 68 9E
 FE 07 74 B1 B4 5C 3F 20 B4 C1 07 53 47 B9 1D B6
 4F 9D 2F F1 64 F6 92 C1 BE 0F F4 29 66 40 7B D4
 9E EC 53 72 FA 78 A2 DE CD B2 25 7A DE 03 E0 6A
 2B 07 53 CC 5C 22 27 C3 98 41 D2 C2 51 3F 3D 00
 51 1C EA 71 2A 25 2F BD BE 7C 90 E1 DF A9 80 53
 E7 94 64 F1 14 1A 98 5C E3 19 AD 0B C6 C1 85 8A
 1C EE E4 2F 0D 4B 52 1B 7E AB 64 6E EC 83 0E 4C
 54 90 A4 43 26 77 01 B7 BF 63 4A FE 3A 7C 12 54
 99 29 67 CD F6 C3 07 48 11 98 E9 2B 8A A9 B5 05
 43 B3 D1 00 E6 80 EC 26 14 DD 31 B7 45 DC D9 07
 6E 03 A8 01 42 B2 25 E7 48 D8 9D 91 9C 88 02 68
 E2 01 0D F9 DE F6 58 33 D0 8D BD B8 E0 07 8E 05
 8B 13 A1 D0 0D 3A 85 E7 85 B6 57 54 11 8D 75 02
 7C B9 35 34 F0 C8 0E 2D 0C FD A1 36 EA 2A 48 65
 05 B9 91 22 9A 66 36 52 B3 5A 3A 5F 93 AF C7 2D
 01 96 DA BE CF 4E FF 87 53 6F 5A B6 EF DD 50 91
 E2 76 46 DC 5D 2B 19 45 B3 B0 94 DB DB 77 10 A6
 2B 7C 18 5B 81 C0 E6 4E 5D 14 A9 99 19 C7 03 C2
 75 32 72 3A CD F0 E4 BB E7 C1 DE D9 A8 60 E8 7A
 06 91 0A F5 B1 69 EE 4C A4 49 D3 44 D0 F2 4E F7
 16 C2 8C C0 FE 5A 42 10 31 CF BD EF C0 8E 62 7C
 54 4E 26 B2 79 06 F9 20 A0 0E 29 21 49 C4 48 C4
 C8 B4 79 9E 99 2D 95 E5 E2 EF F1 43 CB C7 A9 9A
 4E FB 4F B8 BD E4 DF E9 0D 2A F9 31 23 AF 01 FB
 2E 72 CB FB 83 EF 9D 91 5B 7E F5 B5 3A 73 39 16
 5C 5D 7F 6C 90 18 99 8B AB 4B 24 F8 0C DC 89 02
 44 36 CE 57 69 00 3E E1 83 F1 D1 A7 3A C7 98 22
 24 40 65 8F C6 ED CC 04 6E E1 B1 A6 76 E1 25 6F
 F7 1A A4 D4 75 32 63 6E 4B 1E 5B 7B B3 7B DD 7C
 B3 09 A5 58 18 49 EE 3D A7 DD A0 02 B4 1C F5 9F
 69 EE FE 17 F9 58 FF F1 73 97 1D EB 38 BF 87 8E
 21 4C F9 81 56 20 BC E7 88 AC 07 8C F3 FB 2D 63
 75 B0 6A A4 25 7C 35 D8 90 5D D4 25 31 5E 86 12
 3D B5 A5 21 20 0B 81 73 9A ED AC BF 52 66 B3 6F
 B9 89 DC CB C3 AF 6A C3 F6 56 29 16 30 D2 0B 2F
 85 77 ED 1D 60 75 CE 98 79 4E 84 3E 61 26 6C 92
 0C 21 C7 21 73 C8 1D 6A E3 D0 93 33 83 5D DD BD
 7D 7F 3C E2 FD 4A CF FB EA 26 39 71 21 AB B9 7C
 4A 9E CE 45 BC C1 BD FD 0E 9E A2 26 7E 4E D6 8F
 83 CB 1E 68 F5 82 04 6A B6 F0 4D C2 D6 D1 3B 9A
 11 A4 1B 3F 8E 41 93 E6 45 84 4D F9 01 6E 86 77
 ED 8C C6 92 A1 72 19 2D 1B 73 E5 66 4B AD CC 0C
 23 FA 3C 5B 58 FF E7 26 3C E1 63 38 D0 9C 19 97
 79 EA E3 FB 2B 2C 8D D7 1D EA 9E FE 0F 1F 4C A4
 5C 3D 93 EF 88 F7 A7 63 DC 18 75 F0 8F D9 7A 02
 FF F1 0D 4D 54 2D D8 BD EE FC 0E 24 A7 B1 64 91
 97 F5 1C 32 62 B5 BF 83 3D 86 A4 30 3C 43 E3 8C
 C7 5B 8A F6 44 25 C7 A2 22 7C B2 7C B9 5D 7F 50
 0D 95 9F 53 F8 3D E2 8E 36 8B 88 A9 8B 6B E5 0D
 2C 37 32 7A B9 47 D8 BF EE CF 5E 31 C0 A0 08 64
 CC 23 E1 AC 84 B3 A0 2F AD 4B 13 1F 81 E7 1A 26
 60 B8 FA 01 B0 86 A0 27 AC D8 24 55 BF AD D3 1E
 5E F7 52 30 E8 A2 24 E1 99 D8 9A DA CF 89 23 54
 00 D3 44 36 FF 0F 4E 50 50 D4 48 B3 2A 17 E9 36
 D0 6B C0 08 53 2E 1F 9F 92 AF 35 51 98 90 39 18
 46 AD CF EF 8D 88 A1 31 41 08 E0 89 39 BF 4C EF
 13 25 F7 3D E0 9A 6D 12 95 EC A7 F6 11 46 38 6F
 C1 39 4D E1 75 D3 FD EE CE D5 FF AF 56 55 CA B6
 AB C4 51 88 52 05 C3 A2 72 77 57 29 59 24 B2 B1
 93 D4 57 2E F7 0F 7D DC 47 C4 6A C4 70 46 7A 88
 D6 4A 21 24 1C 9E 98 45 CB E1 2B 2A EC B1 AF E9
 94 2B E8 C0 2B 14 7E B5 74 DB 41 55 EA 65 32 4E
 90 30 62 71 C4 7A D0 66 06 1A 67 4D 02 9D 09 F0
 C2 1D 16 7E 45 AE DF 46 E1 9E 29 8C 8D 4F 4E 88
 18 39 6A 09 99 36 5B 00 8B 57 C1 BC B5 0F FF B3
 E6 AE A1 93 2C 43 74 47 37 B3 A5 A7 73 86 CF 52
 0A 7A 99 FC 21 5E A0 BA 64 33 C0 A8 AA 08 39 44
 2A A8 1C 06 BA 13 83 5F FC DA E2 34 5D 14 52 30
 93 33 6A ED 60 BD D4 61 01 10 71 61 A5 B4 D5 F4
 5B FB 2A 1C 29 66 81 DB DA E6 87 4B 25 43 01 1C
 1B A3 3A 9D EE 09 6C B0 4E 09 D0 05 FE 6C F2 A0
 C7 28 55 E4 1B B3 7B 5F 1C 99 63 D8 53 38 07 3D
 EC BA AA B2 DF B1 31 D5 29 CF 61 52 43 9D 38 A0
 1B 37 B6 2C CD 71 89 AD 59 99 B8 F3 EF 34 D3 67
 28 71 BB CC 26 4C C8 16 E1 D0 4C C8 73 E7 35 24
 53 4F 8C 47 29 DD 82 67 B8 11 A2 AD 78 85 E2 1A
 47 B2 C9 9C CD EA 27 FF 88 BF 81 D6 30 E2 2D 15
 40 6C 46 B4 DD 1E E7 2D 0E 22 12 26 34 16 93 1E
 BA B0 F7 50 C6 DB 2C 03 08 91 0D B8 F3 8D 26 75
 56 A1 19 18 9B 6F FC 9F 5E 95 EC 72 83 14 7F 27
 CF F1 7E C9 8D DE 60 96 FC C1 32 B9 90 34 81 43
 2E 92 14 C8 D6 A1 AF A4 47 CC D5 38 48 76 FE 36
 61 88 4A 81 6F A9 87 1E 2A D2 4E 99 9F E5 97 F6
 9C 5D F0 61 E1 4A 11 75 47 62 7E 90 29 BA 75 34
 4D 83 E4 03 74 3C 21 3C D2 AA 62 C5 3E AC 1A EB
 BA C0 57 91 8F 59 0C 7B D7 EE 57 7C 38 BE 36 1B
 82 8E BC 94 37 19 6A 25 DF 3A 0F 59 BE E7 6D 20
 5A 7A 04 7F 6C AF 42 6C A5 90 F0 36 0A 30 45 83
 87 21 A6 C0 46 9A 3D 7B 53 C4 0E C4 3C 37 86 CE
 3E 43 47 CE F6 60 7E B5 AA 75 26 E4 27 B0 FB C1
 9B 1D 54 15 FC A5 CA F6 BB 7B 7C E9 25 BE F1 95
 F9 FF 85 12 C6 F5 BE 88 5C C6 5B D7 ED C3 09 D3
 11 DD 4D FC EC 5F B5 26 90 A4 DD 58 B0 40 AC 45
 87 01 1C 19 F7 D7 68 27 DB 05 18 AA F6 29 E6 4B
 D5 FE 57 5B D7 84 FA CE 0A 74 B4 FE 04 26 EF 72
 64 11 6A 38 26 0F 8B 79 FB BE 28 A9 FF 6C AA C1
 BB 2E DA 8C B8 A7 B7 08 32 42 9E C9 88 B3 76 7E
 55 13 E7 08 EF 1A 0B 5E 0D AC 79 9D 49 EB DA 26
 19 D8 CC EB 5A F4 48 45 54 4C A4 A4 6E 5F FA F3
 3B 30 8E 9F 55 35 01 A8 6E B8 CA E2 F6 FE 38 5E
 A7 E4 90 C5 4D 74 90 FD F5 A6 84 F3 69 4C 4B AE
 81 0F E9 7F 49 36 53 3D CD 3D 02 58 0B 68 0E 4F
 42 9C 99 04 16 4F 34 7B 2F 35 08 63 03 22 9D C1
 30 4B 9D DF CE 49 6A 6F 3A AD 64 49 AD 7B E1 CA
 51 B1 01 41 4B 43 A6 0E 85 90 22 A4 95 F3 D1 9D
 AD FF 3B B4 0C 9D 92 66 D5 33 62 BE 66 96 09 5D
 45 60 F1 1E 09 78 62 0C 10 2F 13 FE BA 0B 7B 4F
 CE 2D 12 2B D8 54 3F 49 E7 45 9A 78 73 59 F4 4C
 B8 CB 23 E0 DA A8 82 2B C1 07 73 C8 29 DC 6B 39
 D4 41 52 71 62 D1 D9 87 2B E6 D0 C2 3F 86 1E DE
 78 29 23 14 FE 2B E1 C3 4C D1 C1 34 BD 26 8A 12
 C6 98 F1 13 33 5B CE F9 54 A2 29 C2 A9 22 16 96
 D7 83 9D BC DA F4 CC 60 85 CD 6D 0F 64 53 E9 14
 17 7C 2E BE 9F 0F 4D A3 49 A2 EF C0 E7 65 76 6B
 5C 63 6C 06 AE 6A 86 17 E3 55 10 2E F1 7B B1 0D
 E6 50 4D 12 17 F1 9D 15 62 50 CA E0 BE 95 8F 08
 82 5A AB 3A 45 F7 16 A7 BE 7B EC DE 4C 2E 94 69
 27 EC 1F 9C 31 77 7D 76 60 9D C8 D0 AF DB 9E 37
 DD FB 11 DE CC 19 62 B5 11 6D 7A E5 F9 E8 05 C8
 21 89 E4 3E 19 DA F6 4E 08 34 D1 D5 1E 72 FE 93
 31 DE 59 93 16 30 CA 84 87 2F 24 4D 57 5E 99 F9
 38 E5 06 9B 2C 91 6A 1E 62 3F 62 FB 97 35 4F 91
 96 63 0F A2 C2 AB C6 95 23 89 18 69 CC F8 CB A1
 36 8F E9 E6 73 50 FC 00 A7 0D 3F 5F CD 39 31 15
 3E E1 B1 63 05 80 65 16 CD D8 36 61 9E 30 4B 6D
 20 CF A1 B1 4E 3C 8A C1 57 FC BF B9 DF DD 4A 11
 27 B0 20 5B E6 A8 26 F1 2A B5 9D 13 58 8F DE 43
 D4 26 AE 1C EA A9 2F C0 EE CE D7 99 63 34 C8 3F
 2C 51 39 97 04 E2 E5 5C FD 05 0A 36 C9 94 2E AB
 A5 9F 4F 38 A4 77 8D 85 3A 87 7F 70 B1 08 63 4D
 44 ED EB D3 B5 36 84 CD 26 95 2E 70 99 FB A6 1F
 12 15 47 5E 85 71 FA C9 1F 44 93 9D D9 EE AA 6D
 35 9D A1 83 58 28 37 1F FB 8A B1 5B 6C AB 79 FD
 94 E4 07 B9 3B 6F 7C 5B 65 1E 95 3C 5B 69 E8 0F
 F3 2C 41 F3 BF 9D F3 09 8D 5A 14 59 9B E4 6A 91
 EB 0D CC CE 1E C5 5C 05 E0 66 CD BB 20 FB CE ED
 05 6F 02 17 0C 57 EE 0D 8A 66 ED 9C 06 DA C5 47
 D5 EC 2E C7 36 B9 5D 1C 98 F7 B7 69 13 1F AB F7
 84 66 A4 8A EE B4 C7 F0 5A A7 F0 33 9A FD 27 2C
 65 42 98 8C 33 94 73 75 6B A1 65 C5 33 47 36 6D
 E0 28 D3 F6 AE 10 47 E5 48 51 4D D4 08 D9 DE 4D
 5F 73 49 98 65 A0 B8 4F 0B 35 06 21 C3 92 04 49
 A4 97 2C 82 A3 AC 08 3B 78 BA 2A 45 7A 0B 38 D5
 A7 27 DF 0C 7D 6D C1 5C 14 75 38 53 7E 2C EA E5
 91 CD 33 F0 A4 90 68 7C 44 FB 8A 3B A8 8B 02 9E
 FC BD 56 AE AF 02 D8 84 57 50 89 49 97 81 70 43
 F4 88 B3 96 72 26 68 08 DB D5 FA 62 C6 7E 9F CD
 8A 46 5B ED 42 D7 CF 7D FF 5F 29 66 CB 8E DA 85
 98 09 12 5A 83 CB E4 D4 2B 22 DC 59 BE 95 8F C5
 B8 EF B0 AE DA 4E EF 85 09 53 FF 59 D3 5E 95 A6
 FA D8 05 86 BB 9D 7B 72 ED 11 67 8E F9 2A F8 43
 82 B1 65 A5 3A 53 51 D6 10 1D 5B F5 02 B3 DB 37
 0B 42 EE 72 26 1F 26 EA B2 ED C4 8D 4A 9A 12 89
 DC 2F FD 4C 29 96 32 24 D7 F1 A8 51 25 34 A2 3A
 62 5E 9F BE E5 31 92 71 B5 BA DC 97 36 12 43 9D
 60 CD A3 C8 98 06 0B 04 0E 61 71 36 C8 7C 54 99
 89 C2 3F 8A 44 2F D6 1D A3 8C FF 36 45 66 A5 40
 DF 68 1B 6E 59 AC 6F FA 86 2C 82 67 A5 7F 69 A9
 E2 EE F2 38 F8 E4 C4 92 BB 30 61 E2 09 61 C7 0C
 32 CA 3B 76 0D A5 68 C3 13 73 B9 2A 9F 91 9E 00
 C8 DD 80 72 D5 AE EE 1C F1 6F 7C 6B 95 E4 C8 DD
 02 53 6D AE E3 B8 E8 AA 2E A2 31 E2 AC D0 3C 8D
 31 68 01 4D 35 8E CB 95 1B 27 03 38 C7 D6 49 95
 63 95 9E 37 E7 7C AF 53 F8 D4 2A 4A 06 BC EF 4D
 CE 52 08 56 47 A8 EF C2 0C 20 9E 03 77 AC C9 67
 2F 47 EA 7D 68 57 EE 9A 09 1A 19 28 D6 E1 BF 47
 AB 4C 12 85 1C 11 1E 63 D9 E3 13 5C 5F E0 78 1D
 22 49 01 C5 3D 2D DE 7B C6 D2 02 D6 41 22 3A E2
 6D 51 84 9C 67 F0 86 E2 B7 E0 92 A8 78 EF 95 08
 F7 36 AC BC 46 60 38 C1 52 2A D6 90 74 4E A7 51
 CE 8D 96 B9 F0 60 A3 03 81 78 0C 32 6B 09 BA E6
 72 45 B6 8F 0A B0 97 CC 0E FE E9 DA A5 80 33 AA
 AC D7 E5 79 4A 72 66 8D C0 58 98 55 59 E2 29 FE
 87 F3 98 67 F8 32 F3 36 6D D4 27 FC 75 A8 E1 C3
 CE F2 CC D2 2A 85 50 90 F8 F4 8C 09 2A B4 32 05
 55 85 83 5B F3 42 E6 51 A5 58 5C 18 D2 52 1B 07
 C0 3B 5D 41 35 4B 40 A9 3F 5C F4 5A 6D A6 E1 0B
 AB 9F FD D6 D1 03 E3 AF 05 89 B0 3C A0 FB CB D2
 0D 0D D5 B0 FD 3C 2D E9 49 C2 74 F8 6D 80 AA 40
 00 EC C3 89 E2 F4 16 15 00 85 12 14 42 AF 92 07
 8E B3 16 00 02 9A 56 59 2E BA D3 49 16 6D EE A2
 C7 6D 91 06 B1 38 44 74 0A 32 06 44 3D 37 81 1B
 38 63 8C 8F 99 D0 1B A2 E5 01 62 51 E8 AD 0E 59
 1F B8 FF E5 16 AA 74 C3 AA D4 AC 75 6C 54 96 03
 9F 1B CA DF E1 F0 0A AE CE C3 76 34 F0 91 7F 3A
 5D D4 4B 43 7E BC 50 44 4C 5E 8A E0 DD 1B 18 46
 D6 B0 E7 CF 2A 78 41 36 CA E5 04 5A 11 63 90 2B
 66 5D F5 7E B9 F7 51 BF 7C 9A 58 66 BA 57 02 DC
 A4 E5 D4 95 70 7C C3 57 40 BC 9E F0 93 55 90 BD
 9F 71 E9 C4 73 CF 05 56 3A A3 F9 48 E5 86 46 17
 76 BA 48 D2 9E 5F 0D 40 5F 13 9F 9F 3C 9E 25 2E
 83 99 CA 6C A6 52 81 BD 33 7A B4 E6 B8 E9 9B FC
 22 C4 7E 67 9D 62 4F 34 81 CE B3 3E 46 12 9C B7
 CF B5 AE BC 32 77 46 B5 1F 4C 79 E8 A1 80 4F B0
 7A 5C 26 05 D9 BC 26 18 0B D8 D6 2B 11 54 6B 46
 81 E7 99 61 0E 76 66 2B 55 3C 7D 1B 79 F3 B4 3F
 18 1E AB F8 95 18 03 F8 7B 4A 04 F3 4D 02 CE 2A
 90 18 BF 12 C6 B4 CA 0B A8 60 49 81 73 3E 22 3E
 0F 18 C3 05 CE FE CB 89 56 C2 47 A7 17 B5 0A 03
 36 53 80 35 76 6C AE 82 96 9B BE 35 53 00 F4 17
 AF D4 A9 97 2E 5C 9F 30 B4 F9 84 D9 0D 43 17 6B
 A4 F2 DE 72 F0 C9 34 66 51 22 47 32 6E 2E A2 3D
 51 17 F4 5D AF 68 22 98 3B BC 0E 6F B5 64 87 C9
 FB 72 D7 BB 5C 16 95 0A 40 50 C6 52 D5 BA FB AD
 10 17 1A 65 13 7D D5 1E 46 7A EE 72 56 2A 7F 17
 C4 2F D2 AF F6 3A DA 30 87 B6 1C 19 B0 60 EA 11
 1D AB D4 F5 EC E8 4C EA A2 A7 CC 30 A3 04 D3 BC
 EA 03 1C 05 E9 EF 59 22 52 05 BE A8 9E 2E C5 4F
 2F 75 A3 15 8A 56 B9 58 02 19 19 7D 73 D5 38 F6
 38 18 3F CD 6C 78 0A A0 27 BD 5B 3B BB D8 0E B1
 CD FE 87 D9 0F 39 10 1F 1F 2C 2D 46 48 96 06 B4
 97 6A 40 45 72 BB A5 91 3D 69 D7 38 07 68 EB F7
 E6 13 A3 D0 A8 3B D2 CA 96 97 8D D3 33 47 D4 B6
 BB 30 53 E4 A5 4E 4D 20 42 56 B3 5F C1 5F B9 4F
 AA 45 CD 70 5E CC D1 42 A9 85 F3 A4 93 C3 E6 0D
 D6 41 83 58 4F 58 7D 83 A8 6A 36 98 C1 25 3B AA
 98 93 06 50 B0 7B 8F 96 2E 07 1A 72 7B BE 77 9D
 86 E0 F3 9C DE 0D CD 17 DE 25 6D 27 0C 6B 4D 20
 59 60 C4 9B A4 42 0F 2E B1 C1 EF 42 8D E2 BE 64
 CF 72 DD 45 A2 5D D1 56 03 43 77 80 0F 41 77 3B
 A4 28 38 F1 C9 E5 4E 31 DE E3 3E F4 C8 E5 D3 EF
 99 5E EC 4F 9B 6F A5 55 1B D7 FE 6E 17 EB BA 16
 0F E5 22 CE 0E 4C EF DB F4 7D 77 17 D0 F2 24 28
 00 46 AF BE C0 7F CC A8 5E B8 2A F8 0D D9 D9 A2
 A5 D1 2E E2 02 38 A0 85 78 50 2D 77 B5 B3 E2 BA
 40 15 3F 5E 34 82 38 19 69 EF 5F 60 0A B2 D9 4E
 59 15 88 3A 26 31 1D 94 8C 1F C1 FA 93 72 B6 1F
 22 53 B1 EE A3 FC 8B CF 58 B2 C3 1F E2 D8 31 7C
 26 4A DE C4 9F 45 1F F2 45 0C 30 7E F9 50 23 6D
 87 E0 02 94 D4 C1 73 6F E2 8E ED CE 58 56 D2 B4
 5E 46 DA 48 1A 56 72 5F BF 70 75 4F 39 E6 4B 84
 0D 90 95 5E B2 9B CB 64 14 6A 33 39 DE 42 91 F6
 BE 6D 89 D9 22 6E A6 20 7D 02 59 AA C7 9C EE 27
 53 74 CA A6 FD F6 B6 DC 06 AF 9A 86 F8 9B AE F6
 F5 17 76 1E 8A D6 B2 C9 49 FB 34 18 3C 96 6C 93
 8C A3 56 0B EA 8D B2 95 15 CD 9C 10 A8 A1 AE 70
 9A D1 ED FB 98 1D F5 20 C8 D6 8C 82 30 FC 0A 1F
 10 28 E2 AD 48 B2 8A 81 5D 5F 2D 9E 68 5A 0E F4
 7C CF 87 72 B6 B7 F6 9F 9A 22 59 B7 CC 39 79 FB
 01 B7 D5 59 F4 EE 58 38 6B F0 2E 0B E2 75 35 12
 8A 1A 26 52 31 E3 48 46 EB 6C 14 66 26 1F 88 2D
 55 4A CF 8C 17 0D 97 47 67 23 13 F2 A3 1E 99 1D
 57 6C 25 92 57 FE 4A 05 51 A2 55 8C 56 1F 27 AE
 D7 DB 5B FD 87 F5 66 4A 43 33 5D FD 13 76 3E 04
 45 38 63 BC 09 D4 F0 C6 EB 79 3B F5 46 4B B4 80
 CD 2A EF E7 B4 BB 34 F9 36 E6 92 FC 4B 9E E4 E1
 64 1F 61 4A E7 01 34 EE 52 FD 77 0D CC 54 E2 28
 D7 9C BB 39 B4 5B 93 ED FA 44 0D FE 7C C9 65 92
 6A 42 1E 44 C2 38 1C 8F 8D 4A 9D DF 7B 15 75 69
 AA 78 9F 7D D4 47 38 A4 0A C8 0B F2 9C 34 0B A9
 2E A9 F6 BF 59 11 D7 AD E4 C9 58 E9 77 FD E2 6A
 B1 4F 60 AB 9B 25 9F ED 34 74 61 4A 82 1C 6C 0C
 69 02 BE 48 A4 C9 1D E9 E9 73 E0 C0 AD E3 BC B5
 3B 8C E9 8B 45 88 05 8D 4F 38 4D 4A 1F AF 1E D1
 6E F3 B0 48 33 65 F4 B2 51 70 40 7C F6 68 29 15
 D6 11 6F FD 5C 96 14 47 D4 6A 63 D2 0F B8 04 25
 C1 98 3C DE F4 0B ED EB A2 56 35 C3 96 E3 E0 D5
 6C 68 2B 2C E9 06 EA C8 09 9D 82 3C 6F D7 B0 74
 9B E1 CB CE 18 A2 E5 BF CB 60 B9 02 35 A5 DC BE
 79 6F C2 88 B4 91 BC 42 57 6A 51 61 9B C4 8D 25
 26 CE 6B 45 79 63 E8 A2 59 00 16 D6 E2 2A 24 62
 88 DC 2E 07 1F A0 30 E1 78 F7 94 17 73 03 28 42
 FE 16 50 F5 C5 6F EC BD 53 A5 7A D4 D2 A3 4E 63
 E5 67 C7 59 D1 58 22 F7 C2 22 38 9E 4F E9 AE DF
 DA 40 79 EB CF 02 6F 7D 8D 26 EB 2B 87 4E 46 68
 92 6F 90 98 7A 4D 0A 32 34 F4 4A 86 88 74 BA 1E
 04 CF 4D FF AB 35 77 30 FC 6F 35 00 68 FA 1B EE
 C6 AE 49 CA 83 FF 11 2E 14 BF FB 3C 06 FA F3 8C
 A7 39 DC 72 E6 B9 92 B3 39 D7 27 D1 73 04 F4 D8
 B8 16 D2 BE 5E D8 A1 AD 14 63 9C 1B D1 85 FC 83
 F2 A3 C9 FC FF B3 BB F7 F9 85 61 C7 52 DB DA 0C
 E7 6F D4 1E BB 15 F4 D3 CA 1E FA F9 42 08 00 4C
 18 F6 18 41 77 AF 9C 5E C2 D5 51 7E 1C 22 A6 44
 B9 C4 57 C6 DF AC 3F 5E 46 F2 04 12 74 E7 04 2C
 FC 81 2B BA 62 D8 3F 18 A7 5F EA 96 8B 86 30 8C
 52 0F 06 8A C7 6C 9D E2 7A 57 AC F9 50 1F 09 A8
 6F 33 06 67 D8 84 C8 14 7B D0 5E F0 7C A4 BA 96
 D0 E5 A5 C0 BE 15 11 E3 80 41 02 21 00 2A 19 16
 54 F7 95 48 04 A9 74 DE 04 36 AC 72 25 CA 06 BD
 5B 64 8D CD FE B9 3D 6C C9 F9 F1 99 0E A7 A0 18
 6D 9F E5 EB 74 B0 B0 6E EE 8A BC 32 20 2E EB 2E
 46 49 DF 89 05 DE 0A B7 E7 07 46 FE BD 48 01 9A
 A1 21 F8 20 59 37 F5 7F 1D EB 2A 30 E2 8F 70 EA
 26 1E 65 CB B7 F9 7A D9 41 E2 F4 6B 49 81 75 A2
 BB C2 BF BF 14 D6 71 DE 22 24 28 B3 38 40 FF BF
 F2 20 9B A8 07 61 68 59 D3 29 88 FD 66 6C FC 1B
 C1 5B 2C F5 66 5A 48 FD B9 BA 50 2A A5 CD 5F 64
 39 38 A9 A0 6E 1E D3 09 9D 67 63 77 E7 C7 BD F8
 BE 60 96 85 B0 7A CD AC B6 14 87 B2 FD 61 F9 2B
 A6 2A D1 DA 60 42 11 A7 A6 48 9A A7 5F 41 15 08
 48 C9 F0 C0 8F CA AD 54 3F AC 52 1E B1 C5 C9 9A
 E9 58 97 FD 40 DE B8 B3 16 EE E5 21 88 14 52 C3
 4A 90 A9 D1 84 A9 1E 7B FD 52 0E 13 D4 92 A3 D4
 A5 D6 D5 AD 97 87 5D 53 4C 50 E3 35 59 C4 7A EA
 B6 A7 0D 0A C8 E1 A2 51 B8 FD 37 1E EF 52 5F F9
 AC EC 43 79 5F EE A2 7D 93 FF 82 56 B3 FB D9 2B
 55 BD 64 9B F3 8F 38 E6 80 F2 87 C8 E8 FE 5C 97
 FE EB 20 71 79 02 7A 6C 3A CE 85 F8 78 58 3D CB
 DB 1F 47 B2 6A F1 D2 4D D6 91 12 FE AE C7 DE 7F
 BA 8A 27 36 AD 4E 91 02 1B 3F BA CF 4A BB 2F F1
 81 65 42 E0 18 8A 97 21 FD CE 13 99 7D 97 3A 67
 C8 EC 1E 07 A6 08 22 3B D5 30 BA 8C B3 64 8B F6
 6C C7 D7 79 3D 9B 04 65 4B 69 D6 53 43 0D 1D 7A
 EC 31 6B 01 70 48 6F 57 CB BA 4E 87 EC 6E E3 A8
 01 CD DB 19 C2 68 C8 FC EE AC 63 79 04 FC 44 DD
 88 FB 0C 3B DB CD BA F2 42 DD 95 D7 DE E6 3D 3F
 27 68 E4 0E F2 43 CB AF 65 A8 8A C6 CA 06 D6 8C
 AC 6E 65 35 16 B6 BD 32 C4 9B 78 BC F4 98 B8 6B
 E8 F8 DC 1C 37 73 BC 71 48 EF 0C F0 80 52 89 8E
 3F 49 D0 7B 7D B9 2C 5C 13 02 4A BE DE 56 D8 F8
 7D A8 46 2C E5 C6 BA 18 5B 75 3A E8 A4 D0 C5 61
 A3 2D 99 24 07 71 12 F0 EA D5 45 DA EA 87 97 B1
 20 10 C8 44 B5 F1 9F 8C D3 BC 47 8F A3 1D 42 D4
 02 D1 17 57 35 82 0E 41 4A 24 DB 17 DE 2D AE 6E
 8D 5B 54 59 46 36 BB C7 B0 85 3E D9 BF 3D 0A 05
 34 F0 83 FB FC 6F 93 2B AD 34 DC 62 98 D1 14 E0
 79 AC 8B 9C FF 56 03 44 AF FD 4B 89 2C E2 6A 38
 CC 2B E4 3F 85 0D 12 D9 51 57 79 2C AC 14 63 B2
 C7 7E C2 8C 10 38 01 DD C1 64 9A AF 49 24 9B 77
 DE E5 79 39 C1 93 90 A5 BD 8B 9A 6B 71 72 B8 96
 E8 37 45 2D 3B F6 27 55 ED 0F 21 52 DB EB 6B 00
 A4 58 3D 25 AA 9C B8 43 11 76 7A F7 21 AE 1F 79
 F5 5F AC 1D E5 5D 44 8E E6 BD F1 DC EE 9C 60 33
 08 A0 53 B1 F7 19 57 03 93 10 29 4E 46 B5 93 4B
 B7 6D 17 C8 53 E1 D5 1F 47 B9 2E 06 E6 64 BE 25
 FB 7B EF 02 29 FA F9 D3 55 55 44 78 4C BB 02 90
 A8 8D 7B 2E 28 43 CB 00 55 7B 42 60 F8 EE 22 BD
 75 95 66 0E 80 EE BE B0 94 51 CF 92 27 4B C7 87
 CF 74 BE 4E C7 48 74 16 AB 22 EC 3A 60 E2 8F 65
 C5 B2 C5 E9 6C 3B 83 AC 5E 39 9F 28 AD 1A 88 DC
 2E 30 79 FC 07 83 F8 98 78 1E F4 A1 F5 C2 6D B7
 45 E7 1B 04 19 6E 7F CF 58 57 54 DD E3 13 C7 9F
 48 0F 92 DA 67 F4 5C 5D FF 26 99 80 66 75 B2 ED
 D9 00 32 78 AA AB 41 39 5C AC BF CD E7 BD C3 37
 92 E0 51 F2 3E 0B 96 CE 77 6E CB 79 80 AA CD 66
 14 5C F6 5C 1C E7 97 5B 27 9F 0D 26 56 27 2E 2C
 B3 B7 28 57 AA 9D B8 25 AB 81 7F 10 2D 26 7D 1F
 E9 FF 0B 53 BD 01 6E 7A A8 BC 9A B4 D4 AF A0 B0
 F0 48 DD 63 B7 D6 BE 5B 89 4F EC E9 F4 2C 07 80
 DC 8E 5B 67 C8 8F F1 BA F4 6A AF 07 BC 04 9A 88
 FE B0 B1 CF FD 41 82 B5 5D 47 54 A1 0D 6F 4D 99
 AB 05 0C 7F 56 61 F3 2C CF 88 87 03 44 C2 BE BD
 5C 6D 42 B5 AE 59 B7 52 B2 25 12 5B DC 52 A8 5D
 01 82 DB 7E 85 1C DD F7 AF 2A DC EC C0 A1 4E 95
 75 64 92 F5 EE 4B FE D1 5A CA 19 91 59 D8 8A 34
 D7 62 9B 05 01 40 0E DC FC BE CC F4 D3 68 3A B5
 A8 8A 94 66 FC A2 9A 5B 64 1B FA 70 95 07 33 03
 26 AC 48 F8 9D 2D 58 31 17 DE B1 44 9B B8 68 1B
 76 EB CB 1F B3 B8 44 A9 C7 71 19 21 41 97 AC 67
 D0 28 66 35 BC 7A 25 98 65 B6 A2 9B C1 83 59 7B
 00 FD 12 42 17 13 A2 FA 45 BE EA BD E6 06 22 F3
 CC F4 77 1E 4F C2 94 A5 05 E9 FD DC 09 F7 DA AE
 F1 D1 07 15 66 89 D7 FF 5D 8A 56 CF 9A C7 81 52
 23 82 C9 29 C5 36 B3 14 3E B2 E2 9E C3 14 37 97
 25 83 DD C6 50 DD E4 99 F9 2A 75 55 1C 2D 99 A5
 7C 38 BF 39 AF 87 62 D4 DE AE A8 C8 D9 D2 D4 F7
 8E 0A 57 77 9C 94 84 98 38 59 35 13 EB 52 BC 54
 5A 47 9F B0 55 B4 9A B6 A0 6C CA EB B2 D1 C2 E9
 DE 09 4D 13 DD 02 AE AF 43 B8 0D D1 28 01 AB A9
 25 26 DF 3D 0C D1 C9 60 46 A3 E5 49 C7 77 BD C6
 6E FA F2 E8 36 73 6B 7D 2B B0 73 3C 7D 2A 09 D5
 4B 17 17 3D 1F F9 02 19 51 72 76 93 B8 E1 E9 C0
 93 93 AF A3 61 AF 15 B2 7C 97 20 50 07 07 78 1A
 23 8E E1 59 F2 CF DD 39 86 A9 5A F3 E5 A2 1C 9A
 4C A8 F3 5D D4 F6 D3 8C FB 2E F1 AB FD 4F A4 25
 DD 45 B3 7E 31 E7 E0 77 9A F5 10 81 6E C5 D9 73
 41 2C 19 29 C2 A0 3F D7 A3 D7 2D D9 04 84 A0 69
 98 84 6E E2 01 EA 9A D9 3C A3 6E BB 95 1C EE 1E
 7A 59 A0 E2 5B 9B A2 55 ED D8 1A 19 DB 7B 41 1B
 69 8A 98 F3 4A 84 5C B8 7B DA DC 90 DC 1D 8A 87
 4B 9D 84 62 56 B4 47 35 46 F2 61 88 77 B8 6D CE
 5F AE 42 70 F7 90 15 98 9D F1 2A 46 9D 8C 6A 6E
 1B 86 C6 E6 5E 30 D4 F7 F9 71 6F A2 AB 72 47 11
 65 CE 8C 8E A1 A3 70 91 F5 5F 81 0A FD E2 34 80
 C0 44 56 90 CC FD 12 E4 6E B0 EB 65 4A D9 FB B9
 79 F0 47 3F F6 9E 1D 16 7F C6 CB 7C 54 9F 03 70
 FA B4 AC 8E 23 09 06 01 FF 08 FD 5D 11 D8 BD A3
 F1 10 68 4F 4E 0B BD C5 B2 C9 84 3E 72 C4 A3 30
 0F AC FD 3A E9 D8 B6 41 CD 36 87 48 9F 42 64 99
 C9 96 AA 3F 17 03 A4 CA 1F B2 AA EC 22 4B 88 0E
 80 CE 36 95 1A 18 8E 1E AE 45 3C 60 28 CA 05 7C
 F4 85 CB 0A 9F 75 1E 25 61 54 90 6B 87 88 DB C1
 C6 78 15 29 BB 5F 9D 3F D8 66 DC 8F 39 DF B8 2E
 A8 63 96 36 04 78 3C D6 7C 05 41 7A 2F B9 D4 8E
 19 6A AE 18 1C CE 61 19 6A B7 36 D9 81 69 EE E8
 D0 EA 71 6A 1C 82 75 F7 2A 3F B1 EA 2A 9C 17 66
 8A 43 5D 12 7B 93 AF 84 9C 5A 52 B5 33 4A CB 7C
 DE 76 19 37 82 67 43 CC CD 35 30 E2 C1 15 3A C4
 2F C7 63 66 F8 E0 33 74 FF 20 E6 4B 1D 9E A8 E4
 F0 C6 AD F0 31 D7 4B 5A F4 A3 1A 71 2B EE A7 C2
 F1 11 0B E2 CE AC A7 D7 44 99 82 E3 B7 AD E6 D2
 43 AB 4C 03 F3 6C 5C 0B C7 7D E8 27 DF E6 BF E9
 7F 82 D3 B3 F0 F6 F7 E9 47 7B F8 77 A9 6E EB 14
 42 BE 5A C8 B0 C4 F7 69 54 D3 79 80 17 37 1D F7
 B8 9C 8A FA DE 0B 57 55 2E F2 0C B6 76 4D 5C 41
 88 45 FF 22 11 EA 8C 55 01 75 AE 78 F1 0D 90 A2
 95 2B A7 33 3C 9B 5A E4 FA C2 47 5B 82 66 3A 99
 F7 25 3E 1A 5D 4B 90 C0 62 F3 13 4D 7F BB 2C 92
 F9 8B 4B 73 96 FA 78 13 66 A4 7C 36 89 CF A9 D2
 D0 29 93 DF D9 B5 3D 0A 29 C7 2D A0 61 09 8B 77
 62 80 65 65 B4 59 4A F3 9D 67 91 B1 A4 3F BD CD
 C4 BB 73 9C 30 56 A3 C5 1A CC FE 02 A3 83 AA 2E
 D2 03 AF C2 4A 63 61 12 2C 85 2E 16 BB 19 AC AB
 C4 2E 98 00 7F 58 B6 D8 BC 8F 2D 56 55 5A A6 9F
 84 31 60 7F 59 07 21 76 89 23 E0 F5 DE 24 51 CD
 5A 5C 39 5D 77 36 B6 36 C2 A5 F4 88 56 4F C3 F0
 25 77 25 3D 96 45 E3 1E 5C 71 EA EE D6 09 94 B2
 36 AE C2 4C 47 A7 71 CB 74 7C 71 BC DB 91 28 4F
 FA 33 6B C1 5C 63 2A 3C F4 A1 50 A7 D6 9B 46 2D
 47 20 52 F8 F1 51 B4 C0 1D 82 A2 6B 76 7A DD 64
 26 6A 7C 7F DB C7 06 44 51 2C A1 C7 C0 57 95 5B
 AF 77 77 FF F3 E0 5B 50 97 CA 12 30 11 F5 A8 52
 A8 C6 E4 01 0A 9B 7E 48 BE E2 FE 95 C4 DA A9 12
 DA 65 6D 40 3B A4 1D D4 7E F5 2E 8A 83 92 58 02
 93 42 87 B3 D6 AE 03 66 34 CB 42 D1 A4 03 1E 7F
 F4 C0 39 40 C0 F2 60 E3 96 DC 3E E1 E2 53 CB FC
 C9 5B 99 30 23 CC B1 41 91 4C 82 E9 98 FE A1 FA
 85 58 82 75 53 F1 AC 1D 27 13 A2 1E B7 7A B4 FB
 0D A6 60 0D 7D 70 97 50 09 42 20 60 1D 67 73 90
 57 4B 56 48 D3 DB 14 6A 03 E5 4A 35 EF CC B2 3F
 75 5D 8D 04 E8 AE E5 1F 87 0D 9E 20 1D 60 04 6F
 D8 47 B7 D4 63 09 D7 CA CE 05 D4 0C 11 F1 6C 52
 D9 30 50 9E 54 56 96 4E E2 1B E4 FA 24 67 5C 93
 F0 84 D9 6D B0 D2 19 EE DE 0C DB 7B 96 A6 11 8C
 90 7E 4D E6 BC 15 5E 82 80 AE F0 E1 B2 0C 1D 38
 51 3D A6 D2 47 64 38 90 AB 61 A6 AC D4 0B 06 71
 72 9A D3 BC 5B E1 93 D9 F6 5F AD 67 6B 95 A0 65
 80 BC 8E 53 A2 7E B6 F0 C3 49 2E 21 CC 72 FA E7
 DF 7A 85 15 2C 68 79 55 46 5A 65 F0 DB 04 CD C6
 18 6B 39 C4 C9 16 27 51 70 D5 1E 7C 88 77 A1 20
 8F 19 74 78 7D 2A C8 ED B4 96 8C 10 8E 2A 91 08
 CD 50 D2 F0 AD 23 F7 F1 61 39 E7 EA E7 0D 78 32
 BF 59 AD 6F F5 F9 08 65 46 D0 A9 DC 06 7B E6 1F
 88 63 85 61 96 7A 6D B8 01 32 A4 F3 B6 2F E2 C8
 12 ED EF F1 D9 E1 BE B7 A7 4A F1 F8 97 A5 9F 20
 76 4C A3 E7 76 C4 5B A2 50 19 9A FD 42 DA 64 82
 45 BE D3 B7 01 5F 8C 6F 25 A0 BC ED 8E C1 11 9E
 45 2D 2A C2 46 C0 60 C2 5F 2A 6C B5 62 A0 5D F4
 99 5A F1 4E 69 F8 58 AF FE 65 DA 19 9D 00 AE 5F
 36 CD 63 8A D6 41 7D F1 7E 44 41 C4 8D 83 20 EB
 2D 05 8B E1 8E 35 0B 2C F2 45 8E 3C 4C 06 EE 7A
 4E 3B 8B B1 E0 2F 11 41 FF BC 7A E4 0E 02 84 0F
 9D 5A 48 C5 28 E2 E1 2C 24 FF 49 E3 50 34 F7 C9
 A4 B7 4F BE 50 00 1E E9 DC 64 51 6E 08 9F F8 FD
 89 86 E8 BA 3B E4 F6 90 C2 AE 16 54 82 08 9B 3E
 BE CC 7E 71 3D 88 00 1D EF 86 AD 84 CB 2B 8A 0B
 BB D8 82 A0 71 C4 B6 7C 86 03 F1 80 4A 39 93 D9
 8B C8 A5 3F 4F B0 25 23 5F 32 45 2C 85 49 72 16
 0D 15 85 38 6E B6 D0 CC AD EA 88 A7 BD 47 81 9D
 38 E7 28 2A E3 B9 E9 AC E2 E4 38 44 59 88 C4 76
 EF 67 E0 76 1A 69 AA 22 4C B5 89 23 F6 93 E5 D4
 C2 F6 9B C1 1A BC E3 2D 59 A6 0B 2E 59 E7 47 87
 D4 83 A4 20 B9 EE E6 D3 D9 4C 6E 7D 3A 70 6E 30
 33 20 1F 3A 4B 75 7E 18 39 06 57 98 B5 BD 6E 80
 B3 98 7A 7E 1D C6 92 E5 C8 F6 DE 49 FC 77 F4 3D
 F3 BD C3 1F 65 35 A0 F9 2D D3 75 D9 21 52 EC BD
 6F 60 73 F8 DA FF D4 5E 6C 48 97 15 70 61 A1 75
 B3 DA 2F C5 9D 99 5E 4C 98 95 50 EF 16 B9 39 5C
 82 CA 7D B2 E6 A7 59 2D 50 A8 7B F5 22 B1 D1 F8
 27 D5 E1 53 39 FD D4 AC 5B FE 18 CA BB 82 48 9C
 53 F4 ED 69 9E 80 38 DB 36 12 3E 05 0D 5D 57 1A
 D3 93 74 3B C6 93 60 B7 3D 90 3F 69 BA E8 6C 6F
 F7 B1 0C 69 AD 4C 47 D4 77 6F 8F 98 23 C7 45 61
 B6 7A 73 2B 65 B2 31 66 57 51 E1 EB CE CF 4F CF
 69 56 14 07 41 39 EB 93 E8 0E 46 6A 08 0A 3C 94
 AD D1 E7 77 28 74 3E 93 B9 13 75 AC 36 83 EB 99
 66 22 C0 FD 71 BE 9F 63 A7 6D 9B E3 97 AC E8 33
 C4 0E E5 1D C3 E6 24 62 F7 99 0A 90 FB E5 53 A0
 8C 5F 49 05 3D 1F DF 7A 3B ED C6 FF D1 CC E5 06
 A5 3C 9A 3B B3 88 3F E0 E6 55 B2 0E EC 95 1F 3F
 45 E4 40 11 BF 49 A7 94 17 9F C0 E1 E8 C2 B0 C9
 25 CF 9B B5 51 21 AB EB 67 6E 5C AF 38 FE C8 6E
 16 E7 92 D5 F9 48 37 05 0F C2 CD A3 B9 39 39 9F
 37 C2 A8 18 01 34 B3 07 5D 60 DA E9 36 78 1B E8
 25 6B 58 2F D8 BE 7A 6A 79 61 D5 C9 CD D5 BB B1
 D6 E0 A2 C6 BC 43 6F 0E 4C AA D5 F2 88 7E E7 40
 26 AA 30 6D B2 F4 43 4D 9F A2 43 D4 36 F9 90 C0
 4F 29 AE 95 01 29 7E 35 B7 4B 72 6B 2F B5 17 8F
 85 66 BA B0 F6 8F 28 6B 51 38 06 C5 51 EA 22 88
 83 B0 41 0F 08 EC A3 07 81 B9 44 E5 18 44 7A 75
 1C 43 29 98 4B D1 20 68 46 EE 52 91 61 A3 30 35
 A1 7A 69 21 F1 BE DB 50 E1 93 31 2F 02 A8 D5 F9
 2E D1 81 82 9A D4 BE 7D 0E D8 2E C2 46 56 63 70
 48 B0 DD A4 D3 01 63 52 2B E1 70 FF 76 95 8B CE
 D8 7B 63 36 66 B4 3F AA CC EF A2 97 54 16 52 16
 8C 9C 01 DC 3C 5E 7C B7 A7 CD 22 BA 2F 21 F0 97
 6E E4 D4 2B 28 D3 F9 61 69 38 02 AC 75 7D 32 A5
 2F B8 31 6D 37 18 FE EC C0 01 4B FC 47 24 C1 69
 0A 17 2A E0 23 9C E5 06 7A 18 B9 31 B7 01 F5 10
 9D 9F 4D BD A4 56 12 36 C4 6B 52 4A 95 2E A8 7C
 0D 23 34 FD 50 41 2A C5 5C E9 3E C7 CE 63 24 5C
 B7 CC 50 B0 AB AC E9 A3 9C 46 E8 86 52 A9 9F C9
 69 1E FF F0 5D 5F F0 B3 0A 34 2B 76 19 BA D3 49
 6B D0 B4 58 4D 24 D3 09 A1 95 04 D6 9F A8 E6 65
 F4 CD BC E6 31 98 F8 14 0A 41 79 C9 4E 36 2E 28
 59 29 28 F3 C8 61 F1 5C 6F 5B 45 2A 8D 45 57 05
 B6 9F B9 1A F0 0B 91 64 DD E9 75 42 37 48 7D 19
 8A AC 3A A6 B4 E3 C3 3F BB 81 2C 6E EA 24 E7 F0
 60 F5 27 28 9B E9 C7 C0 AC C6 0C 40 01 13 CD 80
 E6 14 16 8A B8 44 BD 66 5E AE 85 F7 3A 40 B8 43
 86 47 D7 98 2A 63 8C 50 CD 72 0D 6A 95 6E F9 95
 BD 75 77 3B 3E 99 08 8D 77 7C 73 9D 6A 7C 70 BD
 ED C8 F2 72 06 4C E2 7F 35 F2 67 4A 70 DA AA 27
 7F 2F 67 64 C2 11 E4 69 E2 53 24 25 3E E0 50 2E
 D3 7A C0 39 DC E5 F2 59 FD 8B FD D5 37 18 C7 6D
 1A 39 4D 24 E5 45 97 D0 51 53 B5 12 AD CE 0E A8
 D3 16 42 C8 FF 7A B8 8E EC 8C 3D 85 55 9D E7 79
 29 7E D3 EC B8 95 D0 2B 3C 3E A0 1B 0E 91 9A D9
 BA 9A 31 B6 CE 13 7D DF 38 6E 38 04 67 E2 48 FA
 09 F6 AD 9E 09 AE 5D 6F 15 90 D8 E3 C4 9C C9 81
 08 AE B7 61 70 A1 8E C5 A6 EE 3C 10 E4 CD 92 AA
 58 C3 E7 03 4E 3F 29 BA C0 49 FD 7C 29 D4 8D FA
 25 F4 EB 8E 34 DA 0E 94 EE 50 6E 3F 63 13 3D 10
 23 DD 18 98 73 8C B0 BD D6 58 0D F8 AE E7 26 C8
* End 1477522154 1908973261