* LTspice Encrypted File
* 
* This encrypted file has been supplied by a 3rd
* party vendor that does not wish to publicize
* the technology used to implement this library.
* 
* Permission is granted to use this file for
* simulations but not to reverse engineer its
* contents.
* 
* Begin:
 63 03 7E 6C B7 FE BB D1 6C 5D 25 AD 84 6A 71 38
 F7 AC E9 E4 BF 4F 5A 9A A2 70 3E 16 17 36 62 15
 3E CD 4A 25 65 53 B6 E3 0D 54 29 E7 4E 75 4D E4
 0F 26 CA BA 4A 3A B2 E3 E0 54 A1 FB A6 5B BA 61
 A2 2F 1D FD 86 85 E0 7D 87 8C 6B E3 DA 6D 5F 72
 92 F3 97 FD 4D 6D 43 B2 B0 AF A2 DE B2 3B 45 A5
 D8 C3 38 49 BA B6 71 CB B4 32 CB DB C4 43 07 C4
 30 6E CB 2F 87 56 6B 3A 32 02 E3 5E 92 65 51 15
 80 7C 98 E9 61 C7 AD D2 EC 1D B4 92 AA C4 0E D9
 1B 3C 91 42 56 E2 A5 71 99 E6 5A 18 D5 DF A2 E8
 C2 D9 A9 E2 78 B1 61 04 99 BE 5D A2 69 89 7F 2A
 5C 15 44 E3 BC B9 B3 E8 D7 90 2C 28 2F 84 38 96
 1D 2C 68 85 5B A9 5F C8 4D 45 25 A5 44 0C 75 50
 1C 5D 72 BF 92 03 3B 9A 2F 6B 6C BF 5B 18 21 F2
 F7 66 FF 61 47 CE 7A A9 F2 DE 3E EF 79 3A C5 39
 5A 11 21 9F FE 4A 7E FD 27 56 50 C3 1B 97 D9 5D
 5A 31 19 C4 F3 0B 7C ED DA 35 22 57 0B DE 16 AA
 BF EF CF 53 E5 D6 FA E3 76 C4 E4 F0 17 1F 83 40
 14 4D 84 43 1A 20 E1 95 67 EE 2A 36 B9 F7 51 64
 5C 08 77 FA 97 45 A2 67 56 EE 34 7B A2 0A 71 57
 70 B6 40 7A E8 C2 9B F9 3A 23 87 83 EE 3E 2D 68
 11 C1 04 96 D0 E8 94 EE 0F 93 74 33 B3 82 8D CB
 3C 1D 8F F3 41 FB 12 76 D4 E8 3D 6F 4D 83 1D D6
 83 B4 81 E7 4E 82 DF A6 52 1C 0B 9B 60 4E 20 04
 B4 2B 6D A6 84 81 05 0C 86 25 46 08 9F 01 31 8B
 EC 74 C9 81 47 72 33 DD 54 5D 48 0C 97 74 0C 3F
 E9 EB 2D EB DA C8 ED 6A 0E 73 95 5D DE E4 48 65
 C0 6B 02 27 64 2E 22 48 62 1D 74 CF CE D5 81 79
 DA 62 80 CB 6A 6E 14 D4 9D B9 B9 64 30 0C F9 75
 DC DC 7B 09 C1 84 F1 75 D7 88 32 10 84 5A A4 50
 80 84 25 3E 82 09 4B D2 5F C0 EA 3F 1F 33 CE 9F
 20 D3 1A 2D EB E6 E5 08 1D D3 B5 03 9E BE 22 E1
 67 39 38 69 9B 3B 00 E3 BA E8 D1 65 3B 9F CE 13
 E6 3C B5 5F DF 12 6F 43 E1 09 7C A5 FF 81 A1 F9
 B3 D6 D5 2D BE 08 1B 2B 04 8F F3 85 27 16 60 5E
 92 73 33 7B 14 84 1A EB 8D C4 FA 14 1D 98 FA 17
 FC BB B1 E0 B4 64 4D FB 25 D1 58 D7 1A 8F 56 9A
 72 E2 9C 78 98 FD A7 51 A1 71 11 B1 2C 29 89 81
 DC EC 72 73 4E 57 67 BE 17 FD A2 81 D7 A2 6B E5
 95 49 BC B1 30 49 17 CC 87 42 40 A1 EA 4C 23 43
 8E 97 A1 DF 4D AA 6B C3 8B 5F 26 20 F2 9F C7 35
 40 C3 AD 44 D0 77 B1 73 CE D8 BB 88 BE 1A 60 5A
 0F 07 DE DC C2 C6 41 35 E9 D0 00 81 A1 FA 75 0B
 21 E2 56 BF F9 2D 29 14 D5 C0 EF D2 1A 51 DE AB
 5B 6B 12 CF 5B 5E CF AA 06 F3 AF 4C 98 6D A9 27
 CF 25 AB 5E C5 D7 0B EF 4E EF 9B CD 6C BA DE 4F
 94 F5 33 02 9F E4 16 1F 01 4F 75 0C B6 A9 2D 8A
 DB 28 F5 CA A3 D5 D6 13 BD C4 69 61 2E 92 79 89
 EF 5F 4F 35 C5 0A B9 DE 73 F7 E6 39 C0 CE C2 D7
 A8 91 36 10 3D 10 75 62 18 1B F7 72 8E 5A 02 F7
 F7 29 18 35 CA CB 3C 19 36 A9 B1 00 4D 44 DA 8F
 99 2A C1 0A E7 DE F9 26 0C 7D 41 54 94 25 12 98
 EC 2E B7 CA AE C6 BF E6 A4 F8 74 61 08 DD 83 CB
 8B 5E B4 77 4B 97 B9 72 D4 13 F6 2F 32 DD A1 AD
 6E 03 A3 BB 7F D1 EF D7 63 8F 82 FC 0B 51 26 C7
 2E 6B E4 CA B3 9B 77 65 20 B0 F0 53 54 7A AF 33
 0F B9 2A 58 1E B2 5F 6C 17 07 1A BB CB C5 58 6A
 36 A0 03 74 53 A3 0F 8C ED C9 BB BA 3E C8 7C E2
 CF 5B 76 DE F2 BE 02 AB 4C 19 E5 70 C6 41 3C 7B
 CD B8 9C 8A B8 DF 9C 60 BC 30 A0 74 6F 66 0B 70
 CF C1 76 74 64 42 7D 9D 26 9D 80 4F 90 BA 39 4E
 09 1C E9 BF 30 2F 2E 21 DB 50 E8 C2 4E 09 B6 3A
 F5 70 C3 00 CC A7 D6 EA CD 29 DA 98 BA 87 4E 45
 B0 13 0C 57 7B FE 9F D0 75 6D A4 2E 27 D6 1A 17
 D0 E9 21 76 30 E5 46 A7 6E 52 BE 9A 5F 55 B5 4B
 30 09 CA 49 77 70 09 36 3C 3A 80 2C 72 4E 34 B8
 A5 2C 90 9E B3 3B 18 B4 81 09 E4 E6 A2 5E 23 A1
 46 3B 64 FE BD D6 B0 78 E3 2C D6 26 1A BB FE E5
 70 47 07 41 85 DF 4A C6 0B EE D9 A6 3E F7 B8 48
 30 39 3D 53 F1 67 AD 12 F7 9F 5B 4A C5 4F 69 D4
 D6 79 DE C6 55 44 97 36 FE C6 14 E2 BF C5 9C E7
 1D 7E BD E2 82 9D E6 68 8A D2 3B 07 56 A7 D9 35
 7B 8E 73 76 7C ED BC 3B 18 AA 0E 1D 84 DB FB 29
 A9 9B 22 CF BE 2E BA 59 27 36 EB 1C 65 4F 84 95
 6B A0 A0 5B 7F EA F8 DF A5 58 72 02 66 17 64 77
 57 6C 73 2F 55 0A 0E 22 78 1E 39 F5 E9 EF 96 E0
 CB 52 FD CB 70 10 83 5D 6B 43 A1 EA 84 38 7C 47
 95 B9 97 98 1C FA E5 FE DB AF 7F D0 72 6E C2 81
 F2 D4 52 24 7F 3B 3B 34 2E 4A 0C 46 4A 91 FE FF
 99 A9 92 FB 03 B7 0C B6 EB 42 15 B0 A8 29 F8 BB
 04 CE 01 62 91 D4 01 AB 24 44 F0 D3 22 C2 D4 78
 E2 26 58 A6 92 B9 F6 30 28 D5 4A D5 C8 14 DE 2C
 F8 1E C1 FB C1 CD DE F4 F1 2F 93 5F AA D4 F6 EA
 5D 79 B1 33 E0 7F 6C 8B A5 F6 18 83 C5 31 9E 1F
 B8 4A 0B 69 80 52 BF C1 C7 0F 10 9C 05 46 EA B6
 BC 71 0B 90 C2 5E E8 62 FF 86 85 7E AB 9C 5A 0C
 B9 C7 FE 26 F6 F8 C9 60 9C EC 74 8E A4 45 B6 1D
 84 BA 7D B3 2A 82 A0 82 57 D5 22 D2 48 CA CC 64
 CE 79 4C C7 13 9D FC 23 1C 70 C3 40 51 36 97 EA
 38 47 04 B9 6E A4 F6 4F 3E E6 5C 6F F0 3F FA 86
 12 0E 7D 89 A6 BD 8F 6B 62 23 F1 02 C9 E4 C5 8B
 D8 DD 91 56 4D 51 1E C2 87 8C 02 C3 2C C9 31 D3
 DE 0A C4 E1 F1 D9 8F BA 2F 3A DB 39 F8 DF E1 96
 12 E3 9C 81 DE 6E 72 49 31 CD 2F 6F 4C 42 B7 65
 59 5A 00 1F 53 36 21 D8 1A 40 72 E8 F4 B2 7A 53
 0B D7 83 7D 16 E0 02 0C A1 78 62 8F 5D D5 18 3E
 36 AD 27 17 08 E7 7A EB B3 93 93 54 64 2B F4 36
 A5 D5 DB 20 F0 5E 2E CF C0 D2 8A 3A 1D 56 B7 FF
 3E 12 B4 76 73 BD AC EF 08 16 64 AF FF EB 41 7F
 2B B7 E0 48 04 68 66 0F AA 7A A4 C7 59 D8 78 F3
 DB 72 3D 5D B3 70 58 52 3A 2F 2E BC 3A 77 63 4C
 4A C6 DE 0C 24 6B E5 12 51 EB 4C 52 69 71 62 96
 E6 62 CD F4 E4 7B 61 BC 32 EA 17 CA 95 23 45 9F
 CC 76 1B ED C2 38 E8 02 F7 0B 2E 0E 32 CC C4 BE
 69 8C 28 D3 BD FE 4D EF B5 EF C4 E1 63 32 69 47
 88 B5 D0 24 EC 59 3C C8 6D 1B D5 7A 57 B6 00 E5
 5A 7F 9D 58 FE 35 98 5B 92 D0 4E AE 8E D7 2E 0E
 49 4F B3 29 B8 DD 91 99 63 6A E2 2E 4C 59 BF 19
 3B FE 17 F2 0F 7D DD E7 FB 15 11 6A A3 2C 5C 02
 30 76 94 FB C0 93 B2 CA B9 9A CC C6 73 15 44 9E
 F9 EA E9 AF C7 3F 7E 08 87 E6 30 E9 59 75 44 E8
 8E 37 E3 02 56 B1 4D 65 65 89 FF AD 8C AB 6F CA
 A5 00 FF A1 9B D1 E7 A2 88 88 56 C8 8C F1 21 B4
 B8 C7 98 49 07 4B 81 16 1F 3A 21 1A 5B C6 A3 11
 54 BC B9 43 19 8F 62 7C F9 03 F0 B4 D2 C4 B4 1F
 22 65 5B F0 AE 3D 29 38 FB 64 0F 17 D7 DF C7 13
 A3 A1 30 58 23 10 B7 23 9B 45 8A A6 C3 5F BE 4A
 D5 D9 EF E0 92 FD BB DE E5 AB B1 54 D5 C3 21 C4
 A9 B0 5E 1C 60 8D D8 3D CA BE A9 4D 70 4B 82 8F
 DB 02 CF 18 21 8F CE 4B 9E 89 D3 80 13 24 15 00
 FF A0 D1 42 A6 9D 8C AB A4 B4 48 DD D2 6D 36 B8
 C1 B7 EA F4 74 6F 1C 08 B0 C3 E6 A5 C6 8B 21 6B
 84 48 D5 AE 08 1E 4A 7A E1 94 1B 95 67 46 02 28
 FC B8 C1 C3 5E 0F CD B2 D8 82 6D 19 0F E2 32 61
 F2 F8 2B 51 DD 5F 91 E7 61 D9 6F 78 3F 29 7E B7
 6E E5 93 4A FD C3 99 6F 18 BE 63 49 B0 45 13 0F
 7F 34 47 A1 2B 2B 83 91 98 EA 76 05 24 E5 87 E9
 5B 22 1B 51 54 1C DD 11 3A E1 00 1B 0A 1A CA 4A
 72 02 48 AB C2 E3 62 F9 DD A0 66 E6 33 4B F7 E9
 05 E8 F2 9C BC B2 29 31 86 B5 90 8D 65 BF D9 97
 64 D3 0C 59 B7 F5 2C 78 CB 04 FA 3C C7 43 58 0F
 7D 42 BE 9F AB BC 49 F3 FA 0F A6 62 01 67 35 26
 AF 4D C8 D7 37 AB 5C 6E 8C F4 01 2E FE 06 77 5A
 F6 7B E7 EF 48 89 A4 A7 33 C7 B5 91 BC 2F 13 D0
 DC 5C 64 88 95 34 06 9A A1 40 83 FF D3 6C 6D 7F
 02 25 51 11 26 03 55 6B CC 0C F4 63 7D C8 84 14
 2F A1 0A DC 6C 08 85 A0 E2 D5 BE 96 69 DB 52 E8
 73 DE D1 B7 B8 F5 D0 94 C5 F8 A9 C6 40 8B 6B 69
 85 EC B8 A9 0C 2A 10 EC D2 8E 7D 76 E1 CD 92 20
 47 A9 FC 8B A9 12 C4 18 72 A9 2B AA BF 98 03 95
 9A 91 7E A0 DD D4 B4 64 B3 38 A4 33 73 E4 F4 81
 D2 E3 AF 5C 2B 1A 6F 5C 48 C8 DA 62 0B 7E AD 9C
 DE BD 35 33 D7 F3 BE DD 58 03 0E F5 00 55 BA 65
 71 5B DC 57 6F B5 71 72 2D 65 57 4C 9D A6 9C 19
 B0 19 6F C5 95 FC 3D C4 D5 7C 0F 9A F4 88 6D C9
 D5 F3 69 47 C4 48 5C 01 3B 31 33 A7 D5 6C 73 3F
 A2 C5 6A 30 5A A7 13 57 4B 63 DE 46 E7 64 5B 01
 E1 AE D6 D1 32 FD 78 53 BE 5B 98 96 DA D9 E1 3E
 A5 4F B7 48 8A F2 95 F4 3D 70 52 40 E8 D5 60 EF
 51 5A 52 D3 CC D2 C2 09 A9 C4 4F 56 33 37 69 D6
 37 49 68 8F 3E D4 A0 03 D9 88 EC C9 5C F6 9D 97
 EE B0 2F 63 9E 68 60 F1 DF FF C2 E8 5F 52 3C 5A
 69 BF CB D5 8D D6 85 C6 E2 6C 9F ED 1B 84 B0 97
 AE 12 D5 4F 5C D4 7C DF DD 24 04 D8 1D FF 58 55
 72 DB B0 06 DB FC 57 48 20 3E 41 4D 4F 07 B3 B1
 81 93 30 1B 5A 81 A0 D6 3C E8 92 C2 24 DA A0 76
 95 84 47 BF 7A DB DA 0A 9B 66 79 AB 1B 87 72 EB
 1C B4 B9 B2 E3 43 BD F5 E0 AA CA ED 9E 2B 58 E7
 BE 8E 1D 66 55 35 C8 17 42 86 D2 01 6D EA 8B DB
 F2 7F B3 21 B9 2F 76 F5 F9 96 4B 7F E5 E9 BA D3
 EF B6 EE 5E 3A 93 72 A5 58 0B EF 44 05 07 E2 B1
 46 D5 06 DF 6E 7C 60 F2 DE 27 99 6D BD 7E FD BA
 5D 86 0C B9 56 00 B8 2D 9B A6 24 84 71 0A AD 1B
 DE F5 F1 35 53 45 E8 7A FC D5 AD 63 03 39 CD E0
 21 A9 8D 1E 8A 7B 9A D2 66 0E B7 CA D0 A8 7C 8D
 4E CA 45 FB C7 1B 1F 39 1C 43 15 57 32 73 02 9E
 8B F3 EC 12 0D DD C4 65 C4 40 09 B7 D9 43 9E 81
 8D E4 6D 36 C9 ED 1A 61 28 49 39 F0 1B 9F 4C A0
 58 88 38 DF 95 FA B0 31 6A BF F6 F5 87 57 2C FA
 B9 C1 7F BD 2B 0B B8 DC 47 F5 F3 24 BC F1 FD 2C
 33 48 25 88 BA 62 7C 3D B3 9E E4 2F E7 58 D7 49
 2D CC FB 07 65 1A 83 A5 FB 76 6B 7E 7C DD A4 46
 47 18 D0 90 6B EC EB E6 18 24 E7 F9 69 52 B3 17
 A4 11 BB AD 7E 69 98 CF F0 B8 64 9C 55 F9 44 F4
 05 EC D1 B8 2A 16 31 63 7E 02 B0 13 08 92 A9 2E
 10 79 40 EC 7B 17 E3 31 6A 9B 80 A8 51 AB 55 B8
 22 24 BD 7E D1 97 4E 2C 09 7A 5A A1 92 77 EC 87
 BD 6D 00 28 E3 C1 5F 81 C8 D1 DD D1 76 CF E9 8F
 B5 38 36 A2 E5 E8 2C 8B FA 78 C2 F5 51 EB C1 76
 DE C8 C6 50 99 D2 C7 6B E4 08 15 D8 1C D3 E9 82
 0D 2F 8D AE 73 AA 9C 28 CF F5 98 38 B8 7D C5 A4
 1C C9 DF 83 0C EC F6 73 38 57 58 DC 69 B3 F4 6D
 DB 9D CF A9 BE 3A 64 DB 1A D0 A5 F4 CF 8F D9 DD
 A8 09 13 F0 35 BA D3 2F 20 69 F5 67 A0 47 DE FF
 50 BB 8B AD 89 E9 73 B6 4F 91 10 07 74 78 27 23
 D6 80 2E 6D 41 4C 81 1C EF C2 A7 5F 14 0F 32 63
 90 E1 5F 2D B5 81 E9 6C A5 FC A1 2B 42 78 43 14
 A6 76 29 F5 8A B0 BB BA 48 CA 7B 9D 81 46 2D 0D
 03 1B 60 66 5B FE 14 C7 7E B5 D3 75 A2 25 E8 38
 AE 7E 7B FE 61 70 B2 95 05 19 EE 0F 4B F8 45 B5
 C4 3A ED E4 5D 7B 70 96 EC 73 CD EF 34 6C C2 46
 0B 0B 97 98 10 D5 74 F4 4C 28 BD D0 97 31 71 EA
 D8 08 A5 7A 93 ED 22 86 49 E9 57 3F AF AF 30 C0
 CE 31 0F 2A 62 38 CB 92 B7 72 BB 77 10 90 45 19
 19 D0 8A 24 2D 74 62 F7 1A 10 5A 15 45 B5 D0 0E
 B7 6C E8 26 11 96 16 2D 5F 5A EF F5 66 6A 8D 95
 7E 5F 0A 7A 51 65 4D C4 75 BF 2F 16 4E 72 AC 37
 AF CA 38 B7 DC 74 3A 7A BF EC 93 D2 42 57 07 5E
 46 38 46 82 2C 19 19 F9 18 82 62 D9 75 CA 5F A2
 13 05 36 54 D8 8C 0D 0A E2 B0 4A D9 49 DD B2 34
 DD 15 20 20 2D FF 18 5F 2F F8 4C 58 9F F7 CF 26
 20 98 CD A3 E3 F9 5E 48 5D 03 06 60 02 0E 37 D5
 B3 76 81 9A A2 24 33 63 1E 41 29 FB 67 11 46 A7
 AE C7 C6 CC 2F A3 31 73 21 12 15 51 D0 31 35 76
 F4 26 86 F3 79 B9 BF 74 E5 7A 91 40 8B D6 6E E4
 B0 C5 1E BB 71 E6 F5 CF 4C D1 96 A9 55 F4 16 58
 FE 92 26 93 F6 C9 D9 03 78 14 49 58 54 34 EE 97
 FE 8B 24 22 90 50 7B 6C 24 E9 89 83 5A 28 02 B0
 36 A7 04 29 40 DC 52 DB 31 52 9C 77 1D E3 E7 19
 09 1E 9A 60 0D 8F B8 02 99 4B 67 C3 EB 10 6F D5
 5B 55 DD 71 F3 B0 F1 08 A0 43 2C FB BE 0D 38 56
 F9 B4 BA E8 4E 8F D4 F3 78 87 42 F5 ED 0C 14 E6
 81 EB AA 87 85 E6 06 13 12 C3 06 0E 0C 30 F3 CA
 25 48 BA 9C 30 4A 9B 18 05 00 20 32 EC 80 AA D0
 C0 B3 52 1C 7C 36 B8 A9 0F E6 40 E9 3E 4C 2E BF
 AD F6 10 00 88 3A 82 B5 0B D8 ED 76 99 2E 24 18
 E9 41 46 E3 5F 15 C8 A4 88 80 12 20 30 69 FB C2
 37 DA 0F 34 DF C5 23 AF 19 18 F8 F5 44 FC 18 52
 D0 2F A7 B3 1E C2 F9 B2 60 80 0E 69 63 50 99 27
 3C CC D3 92 A4 EC 04 FD D5 96 8C 16 B9 B3 D4 B6
 0F 2E C2 4B 67 30 6C 6C A6 1A FA 4B F0 A1 0E CE
 1A 49 3C 3F 33 D4 6D CF 99 E2 27 46 BE 91 D5 95
 D9 65 F8 B7 63 E7 81 47 F9 13 22 F6 D0 06 52 2F
 19 16 BC C1 0F 05 F0 E0 DE C6 54 C8 D5 D3 00 B6
 5A AF D4 D7 D8 01 12 C3 C7 33 A6 BD 85 C5 BA 6B
 55 35 24 3B 59 E2 E8 15 DE 61 77 FF E6 BF A5 47
 D0 94 7D C7 DD A8 6E FA 60 88 E0 A4 45 FC 31 42
 C2 99 1B C7 B2 B2 41 28 9E 9F CE D4 05 E4 D1 8B
 B1 B4 9E 1B E6 45 8C 06 A3 7F 05 C8 A1 17 95 60
 F4 55 34 52 13 36 06 90 FC 4A DF 03 C9 25 D4 98
 92 6A 37 E4 D9 99 4C C1 13 6A 92 C9 BD 3C 85 37
 E8 8B 20 B9 A8 87 59 79 B2 68 DF 5A 27 03 B2 E7
 DB 2F BA 75 9D CF 8F 82 24 C4 05 2D 17 AF F3 38
 FF 26 1B CA F2 E9 8E 20 AC 95 93 49 24 AE 4A 58
 EB D9 DC 5A 97 70 94 33 AA 8E E6 31 07 40 12 FF
 25 1D F4 97 10 13 95 90 CE 83 0A 0A 94 DD 3D 9B
 02 BD C5 44 DE 89 CD 56 D1 85 7F C9 ED B3 87 ED
 CB E8 F5 A3 F0 96 5E 8F 22 B3 2E 89 68 DE 84 E4
 08 BE B7 AB 37 E9 73 CD 44 38 08 69 51 11 6D 17
 DC C3 D0 BE EB C8 7C B6 C6 57 AB A7 98 31 93 EF
 E9 44 83 6D EF 25 43 67 C5 FE 86 F3 36 37 64 15
 E9 5C 97 58 27 16 95 C0 63 53 1D 18 8E 9F 8C C5
 29 27 4D DE D0 E7 5F 2D D3 2E 9B 9B C9 18 1E 83
 65 2A 7B 99 3D F7 49 06 FA E6 F4 52 97 85 AB CE
 7A E5 8E 85 8C 68 1E A7 47 EE BB 79 02 CD D9 C1
 14 7A 4F E9 82 1D 4B CC 90 1B 64 DA 0E 77 87 A9
 05 B1 1A 0F 27 A6 75 C9 78 12 0E 1A 38 E8 F8 76
 EC A6 B1 49 1F 93 83 18 17 E8 4C FB 6C A6 B7 A2
 83 9E 6E 1E 0B 85 0A 9C 57 0F 25 A3 33 6A CB 4A
 BE ED 2C 04 2F 5A BE 38 0C EC 0C A1 90 8F 88 45
 E8 CA 80 36 52 CD C4 96 2D B3 4C FB 7D 5E A2 D6
 30 15 5B 89 5B 24 C4 80 75 85 47 54 13 AB 0D C4
 4D 31 78 28 B6 CA 62 9F 74 BB 40 FB B4 ED 53 F0
 CF 2C 3C C2 F8 36 AC 08 5C 4C 6B 07 F2 64 D7 49
 73 C5 9F D7 59 9C E8 F0 3A F9 FC 8F C7 69 A1 B3
 8D 03 88 20 CA 43 01 E1 4E 79 6C A9 4E C3 76 86
 9D AF 20 49 AA BD 1E 24 89 C8 4A 44 B8 E0 5B CD
 0C 95 5B 47 2B D2 5D E4 F0 4E 73 BA 98 18 1E 5B
 7C 8D C1 E2 52 3A 5A 50 28 37 97 FD CC 76 F8 1C
 B6 4C 6D 97 6E 9D 7F 51 CE D1 3B FB E4 11 5F 12
 5B 8C 71 1B E4 BE 7D 91 B7 9A CC D7 2B 9C E5 DD
 F0 75 F7 F0 B0 DC 35 86 E8 DF 5C 39 1D 23 6D FA
 57 24 D7 54 64 E5 1D 47 62 D1 C0 3E 14 5D EE 27
 6D 45 1F 73 99 8B D7 88 B9 30 C8 94 18 7A 54 B7
 6B EA 6E 82 E7 6D 4E 7F 95 B6 05 FC 86 A2 82 B7
 84 36 E9 F0 36 ED AB DA 31 67 FD D8 A9 72 6A A4
 59 15 12 81 BC 8A 32 7D F1 03 9D 8D 98 71 B9 51
 6D EA 03 CA 1E 5E D9 0B 6D 51 D9 A8 E2 AD 25 19
 D5 C1 48 A6 F1 22 85 CE 0B C2 03 F5 89 14 94 ED
 D5 52 FB 1C 93 E3 F9 86 46 02 4F 4C 66 57 DE F2
 72 78 7C 47 02 34 BE EB 4A 26 4E FA 53 14 A8 C2
 46 7D 49 77 95 CC 3B 73 B0 E8 97 BD 59 45 F2 6B
 DE 4E 54 1D 1C 99 99 76 63 04 A1 14 15 BA AA 5C
 DF 8F D0 EB A0 A7 29 15 EC 29 F0 AA AF 84 B8 B8
 64 DE 7C C0 D9 38 09 A2 39 F4 C6 51 3A DA 34 45
 70 63 CE 2E E9 BF D8 94 71 CA 9B E4 84 2D DD 1E
 28 5A 0D 36 84 E6 3D BF 4C 73 7A 22 E5 F0 EB 6C
 2B CE AE 73 47 AC F7 AE E6 73 E9 85 CD 2C 7E BA
 7E 77 CB 2C 41 88 23 7D 3E 01 4A 8C 80 DF 57 45
 F3 F9 9F 95 CD DB 54 BD C2 30 1E C9 94 98 0F 2C
 B1 BD F1 EF 6A 7E F3 A8 E3 F8 7D D8 6A 16 44 19
 DD EF 1E 50 43 4B EA FC 7F 1E BA 26 43 1C F1 FF
 BA 03 EF 2C 6E 2D 2B B9 DC FF 5D EF 26 C9 52 32
 FA 0D D6 7E D9 91 68 F6 D5 69 B8 15 38 46 E4 7F
 78 93 EF 29 75 B4 6E 42 43 0C 9F FB 9C 2A 0F 2D
 02 AC 80 AB 97 92 8F F0 CD D3 18 60 14 1D D6 5C
 22 BF 9B 9E 6C F8 64 B7 61 B6 90 E3 EB F7 74 A5
 C3 45 E1 22 3B CD 5C F0 F7 3D 2F 52 6D E7 0D E8
 A3 81 27 E7 0A 70 3F CB A2 24 07 0C 6A 0B 7C A0
 B3 26 50 9E 78 C6 91 A5 2E 20 EB 40 20 DC 60 FE
 A0 67 CF 7A 21 1E 09 CA 18 20 93 1A A9 C1 E8 C5
 F3 7D 2B 60 1A 1E 73 F5 77 47 5B 2E 97 4D 18 C1
 DE 0F 89 05 F2 AC AE C9 6D FD 54 40 A2 F9 F1 8D
 1C 26 EB 4C 01 E1 ED 08 E9 94 6F 8C BE B9 90 2E
 54 0A B6 BD 51 20 6E 87 67 56 3E 51 5F 9E 3E 0A
 20 49 51 1E 64 8C 9B BF 49 0B 87 39 62 F5 E1 D1
 30 80 9D 8B 85 29 D8 9C E9 14 26 BE FB 0C 54 CA
 2F E2 F6 98 D4 FC 5F 3A 49 63 86 0C 78 E2 89 B1
 38 61 93 2A 27 34 B4 8E EC 05 16 9D 2D A5 E9 07
 5D 3B 3F 6B 2A 7D D4 EA 55 1E C2 F7 26 2F A7 47
 F2 83 3E 31 CE 4D D5 41 95 C5 2D D4 90 38 8B D2
 41 3C 77 DC 51 87 F7 F0 DD 10 B5 DB 74 C5 6B 36
 77 AF 14 E8 AC 3A 86 C0 C9 7C 2D 4A 6B 93 8F 7E
 5E BA 9F C8 09 67 67 14 BF 8D 72 6D AD 5E 7C A9
 34 46 19 87 39 62 19 64 88 F7 F0 F5 19 09 E8 F3
 03 A2 F7 7B 34 0E AC B6 F9 FB 31 3B 48 BF 31 F5
 C8 3A 45 E8 16 0D 60 6E 4E 90 05 92 69 39 9A E3
 AC C9 53 F5 AE F4 71 F0 D1 1F 1F A4 2B 23 44 1C
 A7 73 49 73 88 6B 0A 5B B0 D2 C3 72 35 B2 A8 12
 52 CB F7 37 53 4B 5A 85 17 58 6E 07 43 30 A7 3F
 CF BF E8 1B C1 31 3C 28 F9 0B E5 C0 DF B0 AF 55
 A3 0E 1F DF FE 27 BE 9E 9B D0 D9 62 E8 BC A7 F0
 B6 EC 3D 2D 8B 6B 22 30 EA 31 FE 87 95 C2 75 DA
 19 6F 2A 3C 3A 6F B8 B9 DF 66 37 85 83 06 E3 5B
 08 2E 06 EA 3B 8D 8B A4 A6 01 62 C0 A1 F1 7E 3A
 B4 6B 80 0F 95 B6 36 AA 7D 02 AE B0 04 AD 38 F2
 27 DA 6D 66 C3 11 D1 81 B2 F9 1A 49 81 CA 89 38
 2A F1 16 96 C7 FE 09 47 27 15 7E E3 39 B1 E2 E4
 65 05 46 CD 96 50 E4 03 27 50 34 5B 56 9A 29 63
 A3 ED B9 22 13 06 DB 98 28 91 1D 79 B9 FC B9 01
 1F 5E DD 8B 91 60 57 56 30 40 6A 5E 4D 9D 52 ED
 17 63 A1 C0 BA D0 2E 9A 46 6D 2B 7E 5B A1 AB F6
 E9 C9 C5 E6 42 F3 AB C2 73 EE 6E 10 B2 65 B1 A9
 9A 6A 39 6B 63 1E 2F F5 B2 9C D3 D3 9A 8E 60 BA
 EA 6C 28 E9 D3 8A 76 0A 83 62 66 6E 6F C9 E0 BC
 BE 29 D6 0D CD 26 59 C1 A9 25 DD 1F 63 74 A2 05
 FA BB F9 35 61 A9 D1 C4 16 3A 93 00 16 6B 16 6D
 4E 5A 78 34 07 CF 8D F7 F6 96 AF BD B2 32 52 1A
 6C 35 66 61 26 25 86 CA C9 DA 3A 09 87 C1 65 A4
 02 BA FF 7A E7 62 83 D6 48 5B 6D 83 59 9D 7D 9B
 67 C2 55 CB 63 CA 56 D5 D5 64 44 2D A5 C6 36 54
 8F BB ED D0 1B 6C 2F 1A 71 44 C9 F2 FE 2D 24 52
 8B 51 18 24 5D 93 E4 BB 86 FC F3 07 14 C6 00 F5
 96 59 71 D0 DE 97 C9 09 4C 4B BA 93 96 FD F7 BA
 FA 24 4F F5 C2 26 D7 7C 52 60 D3 1B 53 9C E3 34
 BD CD 00 A8 31 CA 0C 0D 35 3F FD EE A8 D6 A1 57
 5D 5C F7 C4 29 35 AF 49 ED CF 3F D7 22 B8 59 EC
 DF 00 1F 76 08 3C 84 56 DC 8D 3D FF 7B 50 88 DA
 2C C7 1E D0 CB BC 3A 0A D7 44 DD C3 7D DF AD E0
 C5 7C 57 84 BF 58 E0 02 12 83 79 42 DD BA 3D 8E
 BB 3F 92 27 A4 44 FB 7C C0 3C 02 3D A2 5D E6 4D
 27 BB 76 7F D0 26 23 E2 69 90 71 78 AC 94 21 B3
 81 26 4D 30 A0 5E 91 FA 62 5A E7 C8 0B 45 DB 69
 CC 20 E1 19 8C 51 A8 2D 2D 02 C4 3D FE F4 16 61
 25 11 D4 B1 61 3A FD 1D E8 FC 49 C7 07 1C 19 94
 7E 5F 3B C7 20 B0 4F 91 F9 E7 0B F9 AB D0 B2 39
 90 64 DE B8 4C 6D 2D 37 2F 5F B9 86 1B BC 85 43
 7E 9C 6D 3C 09 AB F7 04 3B A9 A7 6D BC 12 0F 5D
 01 51 21 95 94 D9 1D B6 1E 35 16 3D 94 B3 08 08
 D4 D4 82 D3 9E 31 04 3F 56 B2 E1 2F 80 FD 3B 55
 64 7C A6 4E AD 57 CE 99 C1 8A 32 DC 5A D4 42 18
 C6 8A 66 F7 FF B0 DD 07 7D 12 02 85 D5 F9 3D BD
 1C 1F 02 FC E5 4D 87 C0 BC 59 49 62 44 5F 26 31
 EA 8E BB 22 11 42 D9 3D 35 6A F2 12 2C 85 9D D9
 29 56 8B B1 44 E2 5E 1A A2 A5 B9 45 04 37 D3 9F
 8B DB 03 16 06 5E AA 17 A5 C6 68 A5 4D EC E0 AC
 05 09 6C 6C D5 A0 21 0D 45 90 6E 90 BC 2A 51 49
 FE C4 1C D5 2A 20 EC D3 84 C8 0A FB 90 44 CC 38
 46 F9 D4 87 87 11 81 13 62 F3 D4 BB 7F B9 74 81
 53 D2 A9 FE 74 01 4A AA 8E 1A 16 73 E2 F2 D3 4D
 B9 5E 13 1D 58 93 9A 3A 76 8B 09 A5 C9 34 8D B6
 21 BE EB 5B 06 4D 91 5E 31 CE AB 54 B2 CB 5A EB
 37 B6 0D 50 66 1C C6 19 E8 92 E2 56 C2 BD 21 48
 02 5E A8 BA 12 1D 34 10 97 58 E0 75 CB DB 07 1D
 F6 75 9A 60 94 20 E7 C9 4E 7D 95 AE AA B2 0C 2C
 A7 D4 B0 07 7A 53 C9 F6 23 21 1F 33 2E DF FD 29
 D3 1B 0F 57 C2 06 CA 9C 7F 76 0A 18 68 FA 58 37
 23 3C 70 C0 5A 19 F8 7A D6 CD 7B EF F4 6F C1 F4
 8E 5C 16 31 37 77 04 B5 B1 C9 51 30 CA 4E A7 C5
 9F 4F 0F 0A 94 9E BA F4 DC 64 6D B2 EB A8 02 5F
 00 57 26 AD AD CE 7C 0A F0 C5 02 9E 14 5D C3 7A
 19 14 44 3D 6A 36 D9 40 70 CF B4 A2 19 48 47 AD
 E2 30 F7 AD B2 C9 CC B5 B4 E1 70 97 3A D4 EF 03
 6B 6F E6 FB 09 D4 84 90 DD 89 7D 81 7F 17 74 D8
 CA B1 C9 CA 1F F4 62 80 D4 D2 94 FF AC E7 0B D9
 66 D9 5D 75 90 A1 7F 40 94 36 7A 5B A9 05 3A F8
 F7 33 4C AB 05 6C D4 73 7B D5 AB 63 6E 54 A8 36
 77 60 09 01 EF 72 C7 88 39 4C C4 E6 98 BA 8E 8C
 FE 9B F5 BF A9 4F 26 40 79 26 B9 0B 8D 7A 17 F2
 EF CF D0 2F 09 65 33 24 49 C9 F6 16 EE A7 F8 B7
 7E 08 52 35 CF 62 A4 7F 70 15 AD 34 12 0E 7C C9
 2B DA 68 95 F4 EC 8E 27 15 D9 25 58 18 BB CD 62
 54 08 E3 59 BE 1D 13 60 DA 32 33 12 2F 55 4F 44
 35 2B 81 4C AD C7 9A F6 75 6E A9 98 CF F4 0B B9
 14 FD 7A 98 CC 29 FF 6C 38 38 E0 DA 76 AE 8C 0D
 16 53 38 31 CB 18 B6 05 AD CF 28 F7 B7 95 59 3B
 BB 70 84 7D 54 1E 37 EC A1 CE 8F 18 23 2F 0C 79
 45 C3 34 7F E3 DC 77 64 AF 1E B5 3A 48 C7 58 94
 B4 F5 67 AA 75 E6 99 02 8B 7A 40 FB BA 9D 8E 74
* End 1952266309 193147541