* LTspice Encrypted File
* 
* This encrypted file has been supplied by a 3rd
* party vendor that does not wish to publicize
* the technology used to implement this library.
* 
* Permission is granted to use this file for
* simulations but not to reverse engineer its
* contents.
* 
* Begin:
 76 A8 7F CC 31 9D DF AB 91 1B F9 91 4C 71 93 61
 C2 06 53 17 45 BC 7A 81 31 38 75 0B EC 36 A7 D6
 EE D7 83 1E 71 05 25 0F 3B B9 D7 5C 51 F0 65 51
 7A 0E A3 A4 59 59 43 B7 C7 10 15 D4 1F 50 93 6D
 EC 39 60 B2 DD 6F 04 F4 EA 67 73 74 16 84 BB B2
 AF C3 7C B9 4C EB 2D 51 09 6F CA 46 9F B0 98 DC
 EB 72 E6 52 00 F2 93 4C BC 35 A1 C6 B6 67 45 96
 57 D5 E4 3A 97 00 43 18 FB 54 19 FC 5A EF DC DE
 7C 4D B7 DC 9B 3B 60 94 C4 26 77 BC B5 09 0E 64
 21 DD 59 74 C5 F7 C1 A4 87 56 7F 22 98 99 53 B6
 07 6D 87 8E 70 25 FE 37 F6 44 13 41 D4 14 9E 9D
 EC 15 24 9E 7B B9 78 19 73 39 1F 2C 2E 26 31 36
 52 D1 DA 06 11 76 24 25 3F C7 5B 70 20 E6 96 78
 45 61 A6 4F FF 32 7A 84 BD 7D C1 C3 FC 05 78 99
 DE 5B 8E 8B 43 D7 35 37 F0 9C 32 5E 5E D4 6A 87
 F3 0F 75 64 5A 8D CF D0 92 98 14 87 4E D7 75 39
 95 E7 A3 74 01 A5 96 FC BA A0 3D C4 B8 43 C2 16
 6E B7 95 F3 1D D2 DC 39 8B BA 76 34 3D CA 8D D8
 4D 43 CB A7 A3 F1 75 8A 1C F7 FF 97 02 18 0A 53
 B7 6F 4D AA AE 3E 1F 7A 39 22 00 4E BD 1E B5 1E
 8C 01 3A 44 80 CE 5C 72 30 E9 E3 30 9A DD D3 E1
 C1 C8 2B 5C 1D 3F 9D CC DA 02 38 AB D8 F6 DB EA
 C5 45 D6 94 D3 2A B1 F8 3D 7E A0 E0 FC 86 73 38
 F9 37 88 06 31 88 F6 F2 C2 F8 E3 4A 30 18 61 73
 5B 14 FA E9 EC CA D1 52 2F 8A 94 4F 0B 96 FE FF
 7C 46 DF 68 5C 86 17 47 73 01 52 E4 7E 0C 82 2B
 A8 1D 7C AF 4C 81 41 B8 24 89 EB D3 41 D8 DC B7
 A7 E5 0B 3E A0 8B EE 19 88 77 AD 0B FD A4 8C DD
 AE 71 9C FF E5 3B 78 C0 F0 A2 AF 2C 0D 6A 44 6D
 F7 C1 D9 6E D4 69 15 DE C6 EA C6 DB 6C 7B 30 EC
 67 BE 6B 59 F0 0C FD 82 A8 2B E5 1B CA 3C 56 ED
 4D A3 58 6A 98 6C CE 88 CD 5C 98 78 5D 6A 4C 08
 22 A0 54 62 32 CE 98 F9 64 AC B7 38 34 57 FB 2E
 A5 9C A4 FA DF 54 7B 33 EE FB E0 AC 2D 7F 18 51
 CD 07 93 BE 2D 64 9F 2E A2 10 37 5F 7D 3B 5A B3
 1C 6B F9 24 FA F8 4D EE 2B 5F F2 12 A7 DD 36 21
 83 AA C4 3F 4B C3 1D EF 08 BF 48 52 11 62 24 84
 FB B8 E1 95 3F 66 8C CD D3 CE 4C 1B C9 4B B1 8D
 B2 92 68 E4 B3 24 60 15 BF B9 65 08 8C 29 7C 19
 AB 18 BB E2 86 CE 6C A4 FA A5 01 D0 00 37 88 EF
 83 A9 48 13 6D 09 B6 39 1B 88 9B 99 42 AB F6 EB
 51 6E 3C DC AA 06 5C 99 23 BB 44 9A 1A AB 67 EA
 1F 3B 59 9A 89 B6 CE 75 2C 5E FF 60 9D A2 C3 08
 14 C9 B1 A3 F1 EB 7B 40 93 B1 95 43 38 E6 C1 98
 5A 6B D9 1D 5D 16 CE 58 7B 69 79 F7 02 D4 56 19
 70 BC 7A 26 33 A3 7A 1C 4D 96 F2 86 3D B2 F0 98
 E9 C4 38 41 68 47 5A EF 21 F4 27 CE 1E B3 51 0E
 6D 66 7A F0 BB 0C 54 A9 EA FB 1B C5 B5 AD F1 39
 95 CC EA 99 5D 63 6F 2D 74 C8 76 C9 34 41 97 42
 6E 6B 02 65 97 8E E9 0F 35 61 9A 32 04 99 E4 39
 EA 42 D1 8A 78 B3 79 8D 55 20 C1 87 A2 01 DD 65
 2E 41 F0 53 A8 85 21 BF 00 C6 A7 C3 1B D4 21 17
 6C FA 6C 8B 9F 0D 1D 9A 4B 16 A5 69 79 64 4D 3C
 9E 79 5D 51 8D 3A F0 8F 06 85 28 EE C6 FD 63 30
 22 0C 89 41 20 20 86 D2 D3 1B 63 6C E6 DA 3E 37
 6C 10 EA BE 75 04 5C FC A1 3D DF 4A 6A EB DC E2
 69 F7 20 A4 7A 23 9D E5 BF 3E 93 16 84 36 AC 69
 D0 9B 41 42 EB 6E 42 D4 74 12 35 F5 35 8A 9E AB
 43 4F 60 AB 50 63 E8 04 54 F3 EA E5 EB 59 36 6E
 69 6A 05 4B 1D 0F 8F 7A 35 DF BC 8E 06 51 3B DC
 6E 1C 55 C3 A4 F1 F3 67 85 45 12 02 EC D0 F1 3B
 9A D7 84 A4 92 16 FE C1 99 A8 42 88 C9 B0 7D DC
 8E 37 44 FC C3 9B 6A 4F 5B B6 8D 3E BF 80 A4 FC
 D8 9B 10 B5 BC BE 82 28 87 10 DD 04 FA 4E 49 DC
 EC 15 99 78 89 86 69 2D A9 59 66 CC 6C B7 65 12
 F3 E7 04 EA C1 A8 BB 2D 6B 10 B0 A1 83 8F 9F 14
 BF B0 16 C9 58 68 4F 31 F3 55 BD 25 87 14 E0 84
 27 7C B9 C8 1B 1D 17 01 8C FC 5E 6C 69 70 F5 65
 F0 AF 89 DF 66 37 3C 0E 5A 53 49 CD AB C0 E5 3E
 D8 E1 EF AF 67 77 92 6C AE 8D 7E 16 07 DD 19 3F
 87 B8 2D 44 97 18 8F 2F 29 6A 0E 79 55 64 EA 3C
 81 49 89 21 B4 61 AB FF 6A 62 2C 43 63 2F D0 DA
 FC BD 12 CB E3 BF 74 BD D2 12 15 B6 A0 7C 87 C3
 4F BB 22 2D D2 11 69 20 B9 D4 42 9D 71 A9 82 C6
 8F 57 0C E9 26 65 86 61 59 82 EF A9 D5 7C 59 06
 AD 26 29 E1 1B CB 3A 9F 09 4E 25 C9 DB 1D C7 17
 5E 2D A3 9D 90 FF B4 7B 33 A6 00 45 E1 CE B5 7B
 CD 98 C0 A2 6B 43 85 99 C4 49 48 A9 C8 13 90 0C
 AD 92 09 76 B4 D1 48 93 FD 32 58 78 A2 77 E9 DB
 42 A3 42 30 9D 77 63 ED 7D 0C 2B DE 4B 79 41 03
 AB 93 F5 E6 F0 4C 02 C1 52 F0 01 A5 C1 98 68 5A
 C9 26 38 7D 7B E1 B0 42 09 07 7A D2 42 A8 1A 1C
 3B B2 FE 21 21 BC 6B 84 89 CE 42 D9 8D A5 77 96
 76 BF EB 72 E5 66 EE 92 3C E8 E7 E5 64 82 40 BD
 42 63 C6 A1 A6 87 06 5C 3A 0E DC 27 49 08 7A C0
 1E 50 30 FB 84 B6 22 05 28 EF 9B 29 85 E2 54 0C
 E6 60 DE 7F 49 59 23 A9 71 BF 86 17 CB 2B FA 92
 33 3E 8A F4 23 2C 11 62 3D 84 45 68 47 37 5F 11
 5C AD 43 84 56 E5 4B E0 BD 94 AA E0 FF 55 5A 53
 0A 31 AB C5 77 FD C7 22 0A F5 57 A2 DA A4 99 41
 81 14 77 50 CD C6 51 B8 34 52 42 27 70 7B A4 FA
 8D EB 85 E3 38 4D DE 81 FD 3B 8E 72 9A 21 61 F6
 7D C3 65 BA D0 D8 C5 DC 73 AB 8D 36 B9 2C 74 7B
 25 01 F0 8E 3E 11 E6 82 0D F9 D4 E0 8A 11 01 5B
 55 F9 61 B5 4C 17 83 E6 80 AF 40 85 E8 81 51 1E
 BC 41 24 35 0E D0 7A 3B 4F 4E 5D 62 05 58 87 F5
 12 8B FD 9C 5D F0 26 AE 19 7B F2 A2 67 A3 30 90
 E4 68 E3 44 4A 51 50 F9 4B EC 70 35 79 31 63 07
 A7 83 58 15 75 7C B1 05 6E B9 F2 CB 1B 6D A2 A8
 17 60 F0 CE C8 6D 59 DD E5 9B C8 2B 2C 79 FA 74
 95 3A 2A F4 4C 32 AB 5E A5 19 12 F0 43 76 74 EB
 5C 43 B0 65 C0 B7 80 00 6B 38 74 A1 E9 89 B0 EF
 7F DD 18 34 A2 C0 76 3D 2C 5E 89 90 B1 12 77 DC
 30 FD EF 5F A4 ED B7 A7 60 57 44 D7 B6 0A F0 6F
 8D F0 F1 18 53 CD 97 E1 67 DD 8C 59 67 84 75 FC
 EF C3 F3 63 C8 AA 4D 21 00 1F 14 47 32 8F ED 86
 E8 AD FB 5C 12 63 EF B0 68 E1 0D 0E 24 60 CF 20
 8B AE 31 BA B1 D1 CF 55 98 6C FC 1F 02 40 94 E2
 AD 19 A2 5C 50 CA E3 6D A7 2F 43 0A D4 F7 C1 2F
 DC C4 E6 8C 16 3D FB 2F CF 8C 9B 6A A5 05 D4 4F
 F5 3F 52 46 B3 67 2C DF BF E9 88 29 5C 6C 7E A5
 11 FD 3F ED 0B 2E 83 AE 8D 29 A1 A1 BB 5D 84 04
 A2 D3 07 29 3F 21 23 23 5A DC CA FE D8 1D 22 61
 04 1B 49 2B DE 20 AD C7 5A BA 28 03 F0 A1 F8 0D
 84 B7 88 CB 84 0E 0E 29 36 C8 C2 F0 5C 1E 83 B1
 3E 7B 14 51 41 55 7D A1 F3 6C 3E 86 FC 43 96 F2
 6E 9B A9 D4 C8 29 D0 B1 5E 08 71 D5 A5 43 DD 8D
 38 63 69 B9 AF 43 11 E3 A5 BA 0F 78 E8 C3 77 D8
 50 6A 8A EE 39 48 D5 09 D1 1B 4D E3 E1 11 BA 77
 D0 05 69 DA 68 5A 79 91 0C 70 9A 3A 66 1B 41 37
 85 85 0F F3 04 7F 34 88 C4 4B 92 69 3F 1E 2D C9
 AA 3C 68 42 22 47 50 AD 79 7F 7B 22 DA 59 F4 2B
 DB 4D 77 B8 35 28 44 54 C4 DE 2E 81 D8 E1 3A 0A
 2A 30 E0 CE 52 2F 86 33 7F CE ED 1D 96 CB E2 21
 0C F5 57 20 F4 92 13 FE 53 E6 B6 3C E4 93 9A 69
 C6 80 02 ED 9E F7 19 5F 7B 88 64 B6 EC BB CF 84
 60 9A 4F EE CF 6E DF E9 81 34 13 B8 4C EB F2 AE
 01 44 FC 37 04 00 85 82 C8 48 71 B6 22 03 49 F1
 06 E8 92 4D 6C 95 BD 92 EB 13 E9 F0 61 36 D6 73
 8D 78 E6 CD 69 46 65 A8 87 CE 91 78 FB 72 06 DF
 79 FD 62 15 C9 A2 90 DA 9D 81 4B 2F A9 52 C3 A0
 4A 53 D2 A3 DE 11 F8 6D 72 1C C2 9A 1E EF DE D8
 63 9B 88 A1 0E 02 89 56 36 F2 C6 0B BD BA 08 69
 0A FA C4 B0 28 23 86 4B 66 7B 57 F2 6B 59 25 BD
 8E 34 88 C5 92 B9 B0 7B CF F3 9D 20 DE 3F A2 9C
 67 B1 4F 7E 19 07 AB 8D 8C 0B F7 35 43 DB CD A4
 81 4A 25 78 0F A7 59 83 98 0C CC 56 AB 76 2E D4
 13 3D 1A 27 51 0F 1E 9C FD 02 CA 6F 7C 3B D9 79
 03 54 AD 9F EB 68 95 A0 A3 0C 15 12 27 95 E3 BD
 00 5B 1A BB B5 49 4D A0 EA C7 64 7B 7D 1D 27 32
 5D DF 2E AE A0 E5 AF E5 B3 A7 D1 14 64 34 AB 64
 79 F3 C7 BB EF F2 FF 01 D9 5E 5F 20 56 5C C3 65
 DD C0 E1 2A 84 5D DD 6D 07 23 D3 F2 77 0C 8E 3E
 8F 02 2A 16 9C F5 31 D0 D0 0E DD 97 DA 5A FD CC
 10 5F 9B 3A 08 8E EE D7 EE A5 DB 72 5D 31 31 1E
 74 39 2A 3B 0A C1 48 AA 34 F1 92 81 B6 41 39 CA
 D5 C0 14 83 3C 9D 35 0E 06 00 C7 C7 E6 B3 B0 4E
 75 2E 74 CD 8A 92 09 70 3D C7 BE 41 A1 4A 23 03
 D1 41 D8 0C 14 06 DB A8 A2 DD 7D 2D CE 12 F4 4F
 EF D7 5D EA E6 C5 77 70 B1 DF 40 07 30 9F 00 87
 3E 6E 98 80 AB C3 90 91 4B B3 D1 C0 2E 3E F1 94
 D9 A2 FD E4 5B 27 50 2D 2D DB 1C FE 5C 41 38 49
 6C 31 AA D2 93 B2 CF C9 D1 F9 7E 50 7B 5E D4 7C
 D8 90 0E CD 99 BD BF D0 26 31 A4 3C B9 01 58 92
 90 81 2F 6A BD A4 49 F7 28 25 3E 7F A0 E2 D0 95
 F1 73 6D 26 75 D7 BD 18 01 4A C6 AF 4D CE AA 77
 8C C0 64 2C EC E5 DF 1B 5F 7B 8A 5F E4 8D D5 F7
 5F 71 C8 59 00 AF 2A EB BD 72 B4 56 0E BB 4D E1
 5B 25 31 BD CD CC EC 00 D0 A2 33 74 80 A5 FB AB
 EA 52 29 B6 7D 45 5C 72 48 B8 6F EA E4 88 AE C7
 4A BD 77 D8 3A 55 A1 2A 6C BD DA C1 C7 FC 61 FA
 F7 8C F8 CC 59 15 DB 21 67 F8 7F A5 22 C7 A8 3E
 EB 9C 8A 1D D8 AD 09 0C 88 9F 81 79 A7 9E C6 20
 CA 6D BC F2 E0 A8 D3 9B F7 48 07 04 F6 6A CD E3
 A6 F4 E5 3E D3 F2 A5 66 A9 BD E8 98 DF B3 6F 01
 C7 16 EA 03 34 68 CD 2E 80 75 1F BF 48 81 F4 47
 47 F6 A8 AF EC 58 10 28 08 05 FB 3A 3D FB E3 28
 68 A0 39 6C B5 79 78 0A 77 0C F7 A7 37 BB 7B 03
 78 C3 40 15 8D 25 8E 8F 03 F7 1D 03 5B C4 3E 48
 AD 1B 51 24 7D CD 3C D4 7E 8B C9 95 AB 2E 82 98
 D7 9B 07 E0 28 CD 25 40 CE E6 27 74 9D 29 32 4D
 D5 46 E1 98 66 EE EF 98 15 C9 53 63 A7 32 40 80
 97 47 B6 3F 5C 7F B4 DC FF 7C 0F C9 CC DC 4C AC
 D5 B8 62 48 74 38 0C C0 18 86 02 80 C8 8C 5E C5
 5A 37 43 18 73 8E 92 EB EF CE A6 D9 12 04 72 53
 FC 0E 28 CF 58 20 25 C7 28 08 4B 9A 4B 98 E1 E8
 B5 53 4B 0B 91 BB D1 B6 A1 58 9E 2B 87 68 E5 4F
 70 B9 49 32 7C 65 B6 B4 34 5C 6A 78 21 07 C1 FA
 EB 07 83 98 14 3D 9C B1 B4 9B 18 2F A2 8A D7 09
 45 22 63 8E 2B 6F A4 3B 30 DF 30 BD D1 95 04 FB
 AB 43 55 4B B0 16 E0 9D 8B 4A 4F 82 4F C2 07 69
 9F D0 42 8B 86 82 B5 AF 6A 4F 99 D8 CF A1 BE B1
 84 FA 42 E7 7C D5 26 45 DF 3F 52 6E 40 F0 17 2D
 32 92 63 DB C6 AA 72 B1 A3 7D 74 54 C0 E2 A3 1E
 8D 03 3B 5C C4 4F 56 93 CF 1D 80 8D 92 E3 F8 F1
 FB F4 D8 49 B0 CA 6E 3A EC 82 C4 B2 DA F0 6C B6
 BA AF 6B AB D7 DC 97 2F 51 D9 D5 B4 64 7E 8E DD
 29 4C 32 67 12 B3 A5 80 1E 16 AB DD E6 02 C9 94
 05 C2 69 C5 47 F8 44 F5 B6 42 E0 7D 9B 15 5B B3
 19 10 D3 FB 4A 82 55 3F FA 27 99 00 CA 99 3C 2A
 BE 4D E6 A1 DE D0 E1 75 EA DD F9 87 78 2E B4 21
 59 77 66 20 C4 F2 7C EA 2F B2 71 AF A7 12 70 E9
 54 34 39 95 B9 14 79 C0 3F ED 9B 78 87 67 4C A5
 18 CD 0E A4 C4 23 04 6B 63 DA C7 B5 43 35 4C 5A
 1A 5D 59 4A 33 FA 4A 25 C3 0F 6C 7D 52 9E EE 0D
 82 9C B7 46 4A 8B 92 C2 CF D8 45 A2 A9 78 6C 25
 F6 D3 AD AD 1C 25 EE 89 0A C5 27 E9 C3 FB 79 BD
 84 BF 4E 5A 33 7D 20 67 18 A9 A0 56 AD 08 E9 7E
 AA A3 95 32 B3 AD C9 6E F1 DF 43 85 81 B8 97 AD
 08 BC FF F7 65 61 08 64 AC 5E 0F 42 69 57 59 35
 C2 D4 E9 BF 51 97 AB 1F 5F A9 EC DF 0E 3C 9A 8C
 9E C2 2B 5F 3C C7 E8 09 BD 4E BA 20 8F 2E 1F 1F
 7D 44 22 35 01 7B 69 F9 59 8C AD A8 84 51 61 82
 E9 77 DC D6 EB 74 3E 04 ED 82 7F 8F 17 8A AC C4
 4E C2 A3 70 35 10 0C 40 3D A8 B0 BF 85 83 BD 88
 CA 64 B0 8E 62 62 5A 2E 92 A2 DF 14 04 46 46 36
 08 29 6C A0 FB A0 7A 7B D7 F1 00 65 B7 1F 7B 39
 0D D0 2F FD F0 03 09 3C CF 19 C6 2C C2 D2 E3 E7
 4D 7A 55 EA 8C 4F 69 20 EA ED 8D 25 B1 05 E3 BC
 F4 1A 8C 62 81 82 96 BC 30 8B 28 C7 83 D7 E9 A9
 D3 0C 8D 61 56 CE CC 14 61 CE 16 F8 79 C0 CF 22
 99 8A 42 74 86 A1 05 31 86 17 0E 7D 3C 22 22 AC
 D0 CE 43 40 08 59 85 C1 C2 75 E8 2D E5 D7 8E 9B
 F7 01 89 44 47 4A 0D 15 BE C5 17 B0 AC BF F8 C2
 3E AB F9 E9 1B AC 0D 32 73 85 57 E4 49 2C 8B 46
 90 BB 8F 59 BB 30 B9 91 D9 FF 3B 31 A7 29 E7 B8
 DA C9 24 02 0A 95 EC 37 EC 49 4F 5F 7A 53 35 85
 88 43 66 DB 7A F7 7C 8D 97 A7 E7 8E 5B AE 11 DD
 09 82 0E 60 10 85 E3 AE 73 0D A3 8F 21 DB 3A BA
 01 32 6B 20 51 75 AD 96 18 7C D9 F9 F9 B4 09 2B
 5E 15 C8 87 7F 0E 7A 67 29 17 73 AD 1C B4 BD 78
 E4 D7 82 82 4F 8F 79 70 89 0F D7 D1 3E 5C 4A 56
 DD 1A 09 D5 CD B7 80 22 AD 20 9F EA F3 70 2D CD
 EE AB 93 4A F0 4D 97 07 9C 3D EA 44 A1 03 09 B8
 11 06 1E FF 3F 01 04 6F 50 16 D7 3B 94 85 A0 96
 8D 1E 1E CF 68 E2 A7 BC 09 4D DC 7E 98 68 79 7B
 1E 72 26 AB 66 6D B6 74 E9 00 77 B0 93 72 21 7E
 EC 6A 5A D8 99 17 CB 00 AF B1 DC 76 A8 3B 5F 05
 D3 15 FC 2F 51 DF F6 BC D8 80 EC C0 48 F0 C4 79
 CE 86 B3 7A 1C EF 48 D0 85 36 B9 20 D2 C0 D9 BC
 06 CF 02 8A 3D F7 9D 4D 8E BA 77 74 4D 07 B8 01
 68 28 A9 F8 D7 6B DA 4C 7F 06 7C C0 1E E3 DA DD
 A1 84 0A BC 72 F5 72 08 2B 63 76 8D 33 6C 10 A4
 72 D9 C7 B7 C9 AE 7E C3 7F 58 76 22 95 3E C0 D3
 DC 66 10 51 6D A2 8D AB B2 54 4E C8 E0 4A D4 32
 8F 8D 05 E4 E9 2A 51 32 EC DC 4F 94 CF F8 75 ED
 84 CC 6C 3A 84 63 46 30 8C F1 FB 5B E0 73 16 4D
 E5 A0 E2 E1 61 22 D2 18 9F 06 2B 5B 9A F4 67 A8
 27 C1 0C 49 CB 7F 61 2E B7 21 AA 41 92 2B F2 33
 F2 3C 3B CD B7 50 BC F9 A9 06 A6 9A CA 62 95 EF
 80 FC 36 E6 54 78 72 3C 6D 3D 37 28 25 50 FA DD
 C0 BC D9 27 46 36 FE 84 7D 3B FD CA F1 14 B6 93
 48 00 FD 61 F8 C3 A7 EA EA FB AC 3C E9 7C C7 E2
 1F 1E 6F C6 AE E1 D9 91 29 CE E4 39 52 76 7A 1C
 16 D3 95 8B CC 7A 76 E7 5B 59 E3 3A CA 23 EA 4A
 55 75 41 4A 16 CB E7 34 76 90 E8 E5 B2 5C DD AF
 5B 7D 49 C2 B8 35 5B D9 48 E5 D8 55 C8 85 65 83
 BB 77 C9 3B B0 E2 B5 4A FE 39 5F 40 1B ED E4 59
 37 A1 81 2B 43 8D E8 7F 4E EF 44 E7 A7 C9 4A DD
 69 81 9E 58 06 4D A4 38 63 21 50 D1 4A 95 0C 73
 44 58 28 C9 F6 29 FE F9 4C DE C9 F7 67 62 90 8F
 CE EA AF E0 ED 00 B3 5A 36 B3 26 FC 25 70 2C 26
 BE 77 BB 86 27 9E FC 15 2E DB B2 46 04 12 01 00
 65 58 19 1F 41 0F D9 17 FD C7 D6 40 4B 35 32 EB
 16 D4 67 8E EC 29 51 A1 BA C2 AB 90 AE C7 82 E7
 55 E3 04 2B A2 D8 81 DA 54 FF 8B BF 65 D2 82 E2
 A1 25 81 74 45 B2 90 8F EE 4E EF EE E3 65 C4 09
 3E CF 1B CE A9 74 8C B2 4E 04 E1 C7 E2 07 23 F0
 09 7B 32 B2 0B D8 DC 0E 6B 7A FF BD D5 20 66 97
 8A 02 F0 90 B0 14 EB D8 2D 7E D6 56 63 FE AF 27
 6D 42 24 8B 30 8E 02 DE D5 AB E9 4A B6 22 52 94
 72 C1 3D 76 5C 8D 14 D8 4B CE 71 2F EB 73 68 92
 3A A1 E4 C5 85 B4 EA 5B 1F 60 75 51 16 EC 74 06
 72 1A 3E 96 0F 8A DD 21 32 3E 60 B9 82 8A AD B4
 E6 19 2C 8A AA 21 44 EA D9 0D 33 42 6E 41 F0 21
 EC B1 00 9F 9F E1 76 4C 49 AB 0F E0 BD DC FB D3
 70 D7 1B B4 3F 21 75 4F FC 83 B3 E3 F1 AA BB C4
 29 E6 9F C1 68 DC A0 C1 E9 1A E1 F8 B4 6B D8 03
 FE 0A 2A A3 9B 06 C7 0A F7 DA 5C CE 7F 8B 1B 91
 91 AE 2C E0 01 57 7C B0 9B 8E D8 B3 96 D6 BC D6
 01 E5 B8 9A 15 42 D9 5A FA D1 90 2C EC 6D 08 4F
 FA BB 17 1C CD F6 8A 6F 1A DD 1A A5 6E 47 95 C2
 CB 53 A9 1F A1 A8 58 73 58 28 9B E1 1B AD B9 F2
 9B A7 49 30 18 74 B1 CA D7 FA 72 22 7E 1F CD 5C
 05 9C B8 2D 51 20 5B 12 27 88 0D 7A 5D 11 D4 6E
 EC D3 AE 71 5A 8B EF 98 E6 FE F8 AA CE CA FC 59
 41 AC 90 F7 22 BB 35 74 0E E3 63 D3 45 7A 3D 71
 F0 91 56 0A E5 92 5C A2 4C 01 FD 1D 4E C9 8D 28
 72 ED 30 B9 84 14 8C 7E 63 46 F0 25 82 87 A7 9A
 16 50 30 D5 24 23 BF 7B 01 9D 5C 64 C5 79 6A 8E
 85 52 9B 35 DB 6B C1 72 00 87 A1 95 51 03 C9 E8
 B4 75 4E 57 02 71 AD C3 71 A0 51 B7 2C 12 71 63
 AE 58 43 6D C2 29 60 D2 0F 3E 85 9D F1 90 03 F7
 D0 4F 8A DF C7 A4 72 C8 1A 7C 4F 49 DE 62 33 74
 60 00 88 28 89 6C A7 8B E8 73 F8 74 B2 FE 92 7D
 36 A7 24 E6 58 E1 68 F9 EF 7F B8 0E D4 7D 9D FA
 9A C4 44 52 8F EE 7D 7E 36 EC B9 DB F0 0D EF F4
 82 77 AA FB C8 B1 B9 8D 10 3F 9D 6C 13 5C E4 98
 1A B0 A3 1C A6 6C 69 00 9C 07 34 35 AD DF 06 3C
 38 54 F8 EA DF 22 13 9F A5 3E 7A 0F A1 A4 8F 80
 DD CF E0 17 86 A3 00 37 B7 B3 4A FC C7 96 23 EE
 64 74 C9 D6 14 13 89 90 B7 DA 00 44 99 E5 DD 79
 5E B7 AA C3 18 D9 86 F5 ED EF 23 90 2A 1F BA 8A
 97 50 3D D1 4E 58 F0 51 10 D3 E6 10 DE A5 81 3A
 32 AD A0 2C 1C AF 58 4C DE DE ED 37 41 83 AB 31
 C3 C0 CF 3F BE 47 EE 95 44 20 C0 34 3D 3D 12 24
 81 64 8B 7A 90 87 D5 DB 23 05 A9 9B 8D E1 71 62
 55 05 AD A0 EA E5 56 AC 45 95 01 9C 13 82 DF DF
 43 CE 9C BD FB 47 9B 52 8D 46 CC 87 E4 26 C3 97
 A2 05 1A 9B FC 37 8F 19 55 B9 50 5E 74 17 6D DD
 6E 9E BF C3 62 94 8F 67 3D 84 A0 C4 93 9A BF 99
 E4 E5 34 BF 86 72 51 A0 0A 8E 7E 70 A1 EA 5D CE
 16 C3 57 78 25 2A 1E 17 F1 83 89 97 D4 27 E9 23
 04 A4 A9 E0 66 D3 A5 CA 57 1A 02 03 32 78 67 75
 64 35 74 D1 A3 5C B7 77 4E 81 09 60 D5 90 94 2E
 21 64 A5 70 AD D9 22 18 D4 15 EE D9 11 DA F6 FA
 4F C3 05 20 56 45 5E BC 28 13 1E 48 61 8B C6 74
 19 93 12 EB 4F 79 95 84 96 3B 40 39 03 D8 57 54
 85 31 49 79 8A 9E 30 65 86 F3 4E 7E DF 2E 2B 6C
 F8 55 04 E0 1B 5E 1B 1A 1A 8F C4 17 02 0C 4F 6F
 5A 6A B2 80 B4 C3 55 38 AA 16 42 79 01 51 A8 F7
 7A 5E 61 51 09 1B C9 C1 88 DF E0 C1 D5 44 A9 9A
 94 D4 7B 30 14 1B 14 72 1F D7 09 F2 4F 82 6F A0
 86 61 D7 BC BD 8C E7 6E ED F3 53 48 5A 71 5D 62
 F3 00 F8 2A 4A C9 A4 D4 B9 6D 34 D0 5C 43 6B 49
 79 88 4D FB C6 BA 8A 64 D9 33 17 24 58 8C 36 1D
 98 42 B3 C3 CD BC FF AD 5D A1 94 F5 CF 7D 5D 19
 3C D7 43 09 76 63 37 BC 7A C6 EB F8 88 87 1F 96
 92 D1 90 3A 3C 6B 97 E4 F2 9E CF BA E8 C3 01 6C
 52 0C 45 1F FB 4D A2 B8 FD 05 93 9C 84 50 5A FE
 47 01 E5 F3 CC DE 96 A4 B8 01 5D 13 A3 A0 57 EC
 0C 44 1F 79 33 58 92 20 E0 B5 AE 0D 36 EC 91 83
 2D DE 0B C8 4F 86 46 3B 4A B8 C3 F1 3B 75 E3 70
 42 2A 88 E7 D6 22 31 C2 54 65 36 50 2A 31 31 A2
 71 43 B3 2B EB CD 90 1B 02 19 9C 3F F5 81 E8 5E
 09 D6 35 00 82 19 2D 6A 45 DA 6E EB AB 09 4B 7A
 02 C2 ED C8 32 1C 06 A9 6C 49 6D FB A1 70 6C 91
 26 D2 49 90 86 70 3B 58 56 16 32 C7 2A 59 28 AB
 8A 63 34 9F 00 FD BB 5A 90 C6 03 96 31 ED D6 40
 83 CB 12 E2 F6 E0 BD 95 05 4A 31 4B 16 B2 CB 53
 5C 8C 2A 16 C1 AE 60 BB F3 C0 85 CB 60 49 30 B0
 6F DA 90 89 80 C0 CE 07 DC 1B 32 AF B2 60 89 72
 57 FB E8 E8 16 8F 89 0B 18 4C E0 2C 2B E3 C2 90
 6F 6B ED 3F C9 20 58 B3 B9 9A 02 74 10 31 8E 44
 72 2F 11 FA E6 90 8E 90 84 B6 F7 7C DF 20 2A B9
 B1 44 5B 5C 25 96 EC B9 FB CF C1 16 ED 2F 58 A1
 30 81 24 DA 46 F5 38 64 CF 13 79 D7 51 1E 81 5A
 32 9E 68 77 95 03 97 02 7B 17 E2 31 2C 8C FA 9B
 1B 7B 25 1C 3C 96 A1 11 78 22 D5 4C E2 C1 4C 1F
 61 CB 38 06 B0 35 44 7D 73 F4 5D 83 25 99 06 3C
 FF 75 82 B4 4B 62 81 85 12 9E BF A3 9C BE C2 23
 33 32 FB 54 BB 59 9C 35 C3 54 CD 4C FB 0E D8 D0
 6A 29 16 6A 18 05 5E 28 33 2A 64 07 66 19 86 BA
 FD B1 0D BA D8 12 BA 87 17 E9 C2 BB 5E 6A 34 23
 02 7B D4 C5 7E 79 1A 04 95 59 6E 74 DA 73 A9 3E
 06 0D CC 35 5C BA CE 7D CD DD AB B5 AA 74 D7 5D
 50 EE 7E B4 AC CE 67 A0 0D 6B BA DE E0 63 62 2B
 DF E9 F8 F3 B9 52 18 FE E9 35 6E 78 59 C6 97 B9
 A1 77 6B 5B 40 BE 7B 24 54 85 64 B6 FC E2 F4 F7
 70 BF 0C 01 92 36 A9 6C F8 A2 5C 18 FE 54 1B 6B
 65 59 CE 03 FB 4B 43 BA 73 37 31 D6 69 62 AC D3
 4B 98 E9 63 39 EC AD 68 6B EB 07 24 AB D4 17 6D
 12 C6 26 93 16 3C 98 CB AE F1 0A 86 91 0D 10 42
 C9 5A C3 D1 4F C5 02 0D 31 20 AD EE 5F 43 D9 A6
 E0 D2 2F 5D FD 7C E4 59 C9 9E C6 56 48 E3 D7 AE
 32 2A 66 65 E8 E2 0F 9E 9A 3E 1B 55 54 B0 77 4E
 DA 94 F1 F0 8B CF 1B 5F 38 F5 B2 7C DC 30 D9 70
 A6 36 20 36 38 9B 13 84 42 59 D0 79 61 87 C9 14
 AD 24 28 F7 20 22 80 BC 4F 2B 77 AA 97 E4 5D 64
 72 33 86 4C 98 29 CD C9 DD 38 F9 5E 78 3B A3 01
 2D BF 57 73 E3 9B 7E 6C 8F 4A 53 B4 6A E5 2B FC
 1B FF 1F 93 08 A1 45 49 EE 1C 6A 6F FE A8 82 07
 AD 91 AB FE AA D9 43 32 48 4D 4F 31 EE 05 AB FA
 68 62 B8 10 51 21 EB 6F 25 82 1A 39 55 EC 65 6B
 B2 5B A1 26 50 8B E0 1A 31 B9 A8 C5 93 BA 5D 7A
 F1 41 29 AB F0 78 A8 F0 FD 97 B3 37 4C 0B 2E 10
 56 20 92 E1 22 A7 3E F1 0C 3C 71 1A 2D 26 9F 99
 D0 FB 7A A5 52 AA 6C BD 1A 3C 30 7B ED FE 8F 25
 0B 1D DD 8D 5F E5 64 97 F5 31 BB 94 63 AC FD 18
 40 8D B0 85 DF 17 0B 22 27 69 AC 7E 41 17 A9 6A
 E7 43 C2 B8 F5 E3 F2 A0 07 FA 30 A8 1C FB 78 8E
 32 4A 94 07 54 52 91 C2 73 12 B5 26 42 EC CC 8F
 9F 04 4D 20 BF 9F 68 1A 1B 8D 51 4D 6E FA 38 D3
 5E DE 27 90 3C A8 90 C6 CD 11 59 AF 08 1B 7B EC
 BE C4 F3 D2 83 A2 26 2B 75 E6 5A 52 A6 9C 1B 1B
 F9 12 B8 77 40 04 BF 89 AE 05 5D C4 E5 28 BE C2
 BF BD 1B FD 08 9A 9A E0 31 C7 D8 3D 6E 55 B2 97
 36 CE EC 7A A8 C0 2E 8B 1D 0C B7 A7 4F 1B 68 43
 03 AB F7 76 45 9F 1C F8 0E FC 8E 62 0A 37 AC 8E
 29 BA 96 DD 76 CB 21 48 47 84 EE F4 A5 5E 28 23
 4D E6 5B FD 1D 38 E7 B9 70 83 4C B6 DA 27 6D B5
 8B B9 0B FF 55 1E A2 3D F8 A5 03 3C A7 91 37 81
 5F 85 1D 80 65 67 73 77 49 9B 2F 82 E6 01 D2 4F
 88 D4 3A FD BD BC EB 82
* End 4056659129 3294751773