* LTspice Encrypted File
* 
* This encrypted file has been supplied by a 3rd
* party vendor that does not wish to publicize
* the technology used to implement this library.
* 
* Permission is granted to use this file for
* simulations but not to reverse engineer its
* contents.
* 
* Begin:
 92 6D 23 C5 A7 DA 6D EE 4B 18 13 1B 67 7A 10 96
 A6 A8 FE BC E0 40 BD A5 A8 6E 97 A3 56 F6 85 41
 5A 08 D7 4D C7 C5 70 AF 10 59 94 D6 BE 34 B0 09
 AC 3C 63 10 53 94 12 9C C7 C4 9B FD 10 DC 0E F2
 F3 64 07 FE 16 2A E2 86 11 FA 5B 76 E6 CD 9B 53
 F5 D7 96 96 F8 88 FB 3A 16 CB A4 DC F1 97 4C 2E
 47 1F DE 9C 9F 67 34 65 B5 CD D2 CC 37 B0 91 47
 17 2B 36 42 CB 1A 1A 09 AA 3D 1D 62 D5 6D 62 24
 B9 07 84 D4 D1 54 E8 FE DE DE 79 57 44 E8 F1 11
 34 A2 B6 8E 00 66 4B 04 2C BD C8 55 38 C9 85 4B
 FC 7A 51 2E C2 84 6A 0B DC 62 5D 88 18 53 DA BE
 81 47 0D 40 B3 2C 95 22 56 4F EB 41 D9 17 1A 96
 C7 A8 BE 02 2E E6 1C 0B 21 F1 68 74 92 08 CF 0A
 D3 FF C2 DD CD 5F FF EF 20 64 99 D5 5B AC F7 2B
 AF BC 17 BC 2C 97 5A 73 63 E2 38 18 C4 82 39 D8
 4C 1E 51 5D 4E E6 DB 13 75 B2 B7 EB 1F 69 2C 03
 B0 0C 91 12 A5 CD 09 46 7A EA FD FA 91 CE 9A 20
 E0 D2 20 17 B4 7F 77 12 7E D5 38 40 E5 F6 A1 32
 B4 F4 91 4F DC 5B C9 38 5C E9 67 B1 B9 76 82 79
 B9 1F 7D 6A 10 0B D8 E8 A0 15 61 C0 08 57 EF 8B
 F6 E4 2E CE 83 39 F1 44 7C 0D E0 C6 9B E9 69 B2
 38 55 71 23 E1 B6 8B 5A 4F F9 BD 36 6A F5 F5 B4
 92 01 71 6F EC E8 9E 3C 5C 34 29 97 86 D4 23 AA
 CF 5A 52 7E 8A E2 21 BB 8D C9 CF 22 06 3F 3B EE
 24 52 5C EE 96 1E B2 30 C0 F1 6B 29 7C 96 0D 18
 53 EB 27 18 45 E1 7D 6C E7 20 0F 0E B2 F9 07 19
 85 EB F2 82 D8 04 7D AA 84 83 4A 5B 9C B3 E1 35
 D9 D5 5B A8 05 D5 BF 65 A1 8E 0A CB 3B 01 2D 93
 7B C4 55 92 5F 8A C6 44 EE D3 50 77 6F ED 77 38
 56 54 0E 2D DE A2 9D E4 43 3C 55 6B 45 57 EC C9
 17 B1 79 3D 89 F8 95 18 B6 6F 23 B4 CA 5E B7 9A
 64 2D D8 CA DD 0E BC B5 6A 63 D9 84 51 3D 08 9C
 FE 47 70 2A 8A C3 7B 07 6B DA 69 F1 C1 7A 1E AA
 A2 3E 91 EC DF 9F BA 8D E3 DC 0E 70 B6 1C 95 8F
 1A C1 2B 88 E0 84 8B 95 76 BC 18 C5 EE B1 31 C2
 C5 33 F4 F7 8F 2D E0 DF 32 EE 72 14 B5 AF 4F 83
 24 C9 16 AC E3 F0 B9 D9 F5 1C 2E 89 32 5E AD 9C
 C7 7E 65 9F 95 6A 5E F7 97 79 51 B8 F4 57 C5 57
 30 CA CB 54 67 54 48 F9 2D 71 9C 4C D5 64 14 1B
 72 97 A7 A3 BA 46 E2 1F 6A DD 1F 8E F4 F7 27 26
 F7 90 87 8B 29 63 D7 23 0C A9 60 5B FC 3E D7 63
 60 62 38 90 67 9B 90 47 9E 5C A1 72 71 C2 E2 33
 E8 60 5D 34 C1 32 A6 3D CC BF B6 70 63 8B A4 F3
 1C BB 2E 4F A4 6E 5E 6D 32 4A F1 F2 CA 3C 8B D8
 51 7D 8A 16 33 D0 C2 16 76 16 6C FC 6B 65 B6 76
 F3 8E E6 76 21 29 2B C8 C2 C2 54 57 50 75 10 0B
 7C E8 12 0E A9 E9 8C 5A 2F 82 03 2E 30 26 17 C6
 44 E7 49 AD BC 49 38 9E 48 03 A5 D5 7B C7 10 AF
 3F B3 F2 1D 9D 72 91 E6 CE 78 69 46 FA 55 EE 94
 EC 2D 8F CB FF CF E2 F6 2D 26 B9 A8 6F 26 06 7B
 CF A4 12 99 60 EF 19 CE C2 85 0E 07 69 26 D7 13
 66 A2 46 9B A1 03 97 5F C6 05 B1 9B F0 42 5B 54
 59 7D 7F 8F 7A 03 19 6A 27 52 C6 4B 78 0A E6 0A
 A4 2A 15 58 2B FA 95 76 75 EE EA 03 50 D6 8E F9
 57 20 C3 8D 25 05 1F 00 B1 B0 A4 EC 95 09 FA 52
 21 62 C1 8E 63 82 53 9D FC 2F EE A1 BD 3A 40 76
 C5 6E CE 63 73 06 C9 19 23 DF DD 38 11 BE 4B EA
 75 3F 24 51 D8 25 81 7A AC BB 1D 41 59 FC 16 C1
 C8 17 5B B5 34 47 99 23 65 67 26 9E C2 0A D6 F5
 71 2D 6B C3 D3 8A 48 4F 77 76 AD 3D 59 3C D6 51
 69 72 A5 2C 04 D1 59 B5 52 9D FE 70 70 79 1A 13
 CF C7 D2 74 EB 90 9D D5 F8 D0 8F 46 C0 A7 2F 6D
 FA F6 AC 25 61 4F 28 71 88 86 AF 02 00 F8 71 25
 49 A5 75 EE 89 C6 B3 75 8D A0 EB 07 5B 8A C8 E9
 41 A4 C9 05 7E EC AA BE 0F AE FD 52 6B 22 D2 DE
 64 A3 0F 62 EE 82 EF 79 70 73 D9 5C 4B 8B 52 88
 0D 25 42 E1 F8 C5 0C 38 DF 2C 35 36 AF A8 4F 90
 21 94 C0 3E F3 DD 2B B2 77 D5 06 1F 2D DB 27 13
 D5 D9 A9 F5 BC 24 3A D6 69 DC AC BB C8 7F 64 04
 A7 99 7B E7 ED B2 22 C1 80 E6 66 1F 00 4D 19 0A
 AD 1A 4B 2A 53 99 50 76 4C 06 37 AB 36 7D F6 D3
 FB 14 B4 D9 10 93 A3 82 C3 08 35 53 51 4F A4 10
 AF 62 07 1B 78 A6 53 36 56 42 55 FD 39 2E C8 CC
 0F EC 22 3B 13 47 AE A0 CF AB 68 4E D2 D2 8E 63
 E5 69 7B 3E A4 FE 58 E6 D7 F5 A7 F9 65 E6 AE 62
 17 04 1E 0C 9A EF F8 3F 79 31 65 D4 1A E7 AB FE
 40 15 5B 3B E9 CE 6D 25 97 3F F8 6E CC BD B8 4D
 00 41 FB 14 7A FE 80 8E C8 7D F5 54 EE E1 2A 99
 87 EA 5C EC 26 E8 81 A0 09 E9 D7 D8 56 0D FC 41
 DD 99 08 DA 0F AD E8 F8 15 C6 A9 11 7D 6B 06 21
 4F 3A 36 73 AC AA 31 27 C4 84 59 17 18 98 7F 6F
 94 1B 27 39 B9 11 D8 3E F4 D8 CC A0 2C 2A EF F6
 3A 74 48 54 28 7B 3D 2E 6B 54 69 8B A2 39 06 AE
 C5 7A CD C2 24 CD D6 03 EE 63 45 31 7E 7A D8 3D
 F4 58 2C 18 B9 C0 EA 9F 5B 09 4B EC 53 19 81 58
 FF 4C 76 A2 3D 1D 65 48 BF B4 8D A4 25 EB E5 FE
 87 24 AB 6F 5B CD E8 F6 A4 ED 08 B6 DA 04 BB 6D
 A5 0C 41 93 2A A7 86 93 BE 8E 51 EC 95 0D D7 8E
 D2 CE 69 EE F9 6E E1 F7 95 95 3B 1B D0 DD 9D BA
 8A EA A5 CF 1C C1 9E A8 2F 98 66 B7 5B 51 9A AC
 B3 DF 8F 41 5A 74 A3 20 D2 D0 45 ED 80 D9 5B E9
 FE 85 11 96 0B 97 57 93 C0 73 E7 A3 8A 4C E9 96
 13 90 FF 64 E7 57 CA FA F3 3A D7 36 9A 95 52 A1
 85 0C 18 55 89 52 5E 53 67 70 60 37 5A F4 FE 61
 56 39 3A 28 22 F1 34 22 7E 3E 00 2D ED 05 31 6E
 90 AC CF EF 39 C1 40 A3 E0 6D 78 01 3A 5C 9F 69
 36 21 22 16 4C 23 FD 91 47 36 71 33 0C A6 D0 DB
 45 0E 96 F8 6E DA D6 9B 1E 25 18 A2 31 B7 42 9B
 99 9E 81 FA 14 36 35 C4 46 13 1B 43 84 4A 52 25
 24 84 18 A0 56 E1 05 10 F3 80 B8 E1 0A DB BE 31
 A9 99 12 75 F6 67 91 7E FE EE F0 34 68 23 19 18
 CC 96 A8 92 93 45 62 CF 70 FA 42 DE 8D 14 ED 07
 6B 38 00 D3 22 BB 90 A9 EE 71 50 83 0C 86 24 E8
 2D 24 AF 01 BF 62 8F E3 10 59 BD 9E 40 D3 64 5A
 D3 68 61 7E 20 E6 5E 7B 11 0B 33 34 FF FE FC 2A
 A3 BC DC 93 6A 17 D4 F6 F5 30 0C C8 B9 6E 0C DC
 C5 5D 20 E4 38 82 6B F8 8F 56 31 A8 1A A3 A8 AF
 54 04 1A 98 69 8F CF 36 2F 94 A0 FD E2 23 61 FD
 5F A5 03 F2 C9 BC 2B 80 42 F5 1B 8D BB E1 0D 6F
 AA 54 B6 C0 D7 2B 4F 89 7B D7 0B D9 EE C2 B0 D4
 78 0E A5 9C 6C 0B 15 07 FA B6 62 38 BB 5D 6F 54
 E0 82 F1 D6 1F CD 53 64 06 DC 82 C8 8A 05 07 99
 63 4F CD 51 D0 0C 9F 79 1D E7 2E 48 02 7A 38 9B
 E2 30 69 6B C5 87 B1 86 F5 BF F0 08 44 F3 2A C9
 2D 6C F9 34 1C A6 0C 43 AC 9B C1 53 3F 56 FF AE
 DD 37 80 1F 6E 9A 57 5B 93 80 4F 51 B2 A6 10 6A
 DE FA 6B 61 F2 87 EB 30 9F 83 08 7C F7 4F 90 F7
 82 AD 34 63 8B 0B 6E 16 03 E6 45 DC C8 5E B3 A5
 C1 F7 F4 B1 5D AC 4D 07 EF D2 8D 2C 2F A8 2F 2E
 43 DA E6 1C FA 7B 84 11 CA 6F A2 E6 A3 48 5A A8
 23 27 94 ED DD 2E 98 7E 10 F6 9F 98 FF 93 09 01
 3A 63 18 C1 2A A9 9C 20 90 75 C9 D3 FF 55 41 8F
 BB 6D 7A A1 91 6B D7 F7 EA 78 6C C1 A4 44 82 06
 5D 4D 26 4A E5 62 E2 D6 B4 B8 8F 5A 7A 6F 66 2E
 B0 DE E1 CF 61 CA DA 0D 76 D3 95 7B F7 6D CA E1
 C5 A7 FD D1 F2 74 3D C3 76 C7 20 08 B2 AF B4 F8
 38 DA 9A EB 38 62 11 85 45 4A EF 4F 95 FD E6 47
 A5 0B B9 BB 4B F2 CC 4C DB 4C 54 D2 A5 96 13 03
 69 4A 18 71 88 E8 E7 D8 1D 79 AD 6D 34 05 BE DF
 8E 27 3D C5 E7 9D ED 5C D5 40 F7 D5 B3 E6 4E A8
 40 13 61 0B D4 40 AE 97 C3 96 E0 AA CA A6 BF D8
 56 6E 3A 11 FD 0C 5E CB 80 61 4A 18 88 83 2A CF
 DF 8E 6F A3 46 A4 AB 97 90 16 5A A7 DF 80 2F AC
 58 AA B4 43 72 55 D8 4E B0 A5 72 E9 D3 A1 5D 4F
 6F 63 FE 3D 83 0C 46 49 D9 D4 42 37 00 8B 03 D8
 8E 4A 07 AD 12 6F D7 EC A6 95 04 12 8F F2 3E 58
 01 10 DF 22 B8 FF 3F C3 72 4E 33 7A 45 B2 83 07
 19 8C 7C 1A E6 AB 90 25 14 C2 C4 96 61 7D 8E 87
 42 7B 09 51 58 D2 5E 0C 4E 4C C8 0D 92 19 56 C5
 EF 39 C1 96 85 C5 EF CC C2 13 A2 CE 23 E3 45 8F
 2E 7B 73 E2 32 BE 3A E1 72 FD BE 7B C0 7B 43 DB
 07 85 45 55 DF F4 C6 95 AD D6 08 34 37 20 9E 36
 D5 B4 00 4E 4B 92 D6 6F 71 FA 3E 60 D0 63 00 40
 76 B7 7F D7 DF 20 72 88 9D FA 7D 21 28 2B B9 3B
 22 ED BB 4D B7 D9 0E 55 27 F4 15 6E 47 79 78 48
 65 AF D8 01 75 14 D4 28 C5 22 8B 07 F1 16 D0 F0
 A0 F4 C9 DF 4B F1 06 EE 0B BA 47 FB 07 17 30 A3
 26 B3 04 CC B9 D5 38 78 CE 96 D8 E1 0F F9 94 D0
 33 93 ED 4D 66 26 5A C8 C9 1A 2C 4E 80 B2 89 8E
 6F F1 A3 F8 08 42 9A 93 8A 1E 04 F5 44 D2 3C 66
 4A 4D A0 09 26 D5 D7 6D 6B 89 68 CD 4B 83 93 3F
 30 AD D2 C5 9A E1 78 D7 AA 55 B3 BC 46 CF A4 0E
 57 79 67 C5 E1 06 3E 0C 59 44 2A A8 3F 1A 34 D6
 B7 7A 07 35 7C C9 FA FD DE 5F 26 25 2E 38 9E 4C
 F6 39 C1 D8 77 7B 46 59 02 59 A3 8E 35 C9 35 1E
 D9 26 E6 9B 71 CD F0 6D 49 7F AC 52 CD D9 CE 4B
 F3 E9 36 68 1A 2E F9 CA 71 44 2A A7 69 05 AF D8
 3C 32 65 8F 14 25 97 91 90 71 2D 71 E3 EF AF 25
 40 C4 E4 DA 74 98 71 11 BA B9 30 85 83 30 6D 16
 6F E8 E1 6A 28 0D CE B8 10 BC 00 15 EC 9D F5 0D
 97 A8 7A 61 E2 74 5B 05 09 A7 C5 06 66 9E FA B6
 87 A9 8A 90 A6 4A 89 F4 05 77 E1 C4 71 88 62 AB
 96 0D C8 63 2C 43 2E 0A 42 E0 B9 5A 97 2B 18 8D
 C7 7A F0 7D D0 DF C7 13 46 F7 A4 6A 52 36 F8 CA
 85 36 7E 99 49 7A C7 7F D8 DD EA 3B CC 93 14 EF
 52 8C B0 20 E1 50 32 2D E5 DA 03 C9 30 61 A6 C6
 A9 F3 39 D0 6D F0 91 74 14 08 8F 76 90 AB A4 FE
 ED CC AD 54 4D 9F 97 5A E9 D5 84 27 2A DF 4D D4
 94 AB F1 4E 01 38 C6 0F A6 65 3E D1 76 57 4A D8
 4A 42 09 FB 78 F4 5A F5 67 BA 5D 8B 1C 0E E4 FA
 2D 7D 5B E9 77 51 C9 3F 6D F2 03 D3 BE 0D 73 8D
 58 46 0B 7E 60 94 2E 0C C3 87 08 D7 BE 86 93 3F
 21 3B D8 91 E8 F0 18 94 20 BA 0E F3 3E B0 D1 C8
 A1 C9 BB 51 68 2E 0C A7 A1 46 ED B2 69 72 F1 EE
 99 87 2E AC 3A 01 CA BD E4 7F 34 C7 3F 86 87 BB
 AE CA A7 0F B5 1C 1D 64 A9 32 2C D5 8D 62 25 BF
 E9 DA 4C E8 8F 90 5B 93 54 A1 E5 87 0D 8D C6 4C
 03 6E DB CA 83 C7 5C D2 AD B9 6D 14 DD B7 E7 88
 B5 93 8B 91 45 98 86 02 49 89 1A CB 0F C9 F0 8F
 30 C9 5A BA DE 96 72 18 EA 26 1A D8 17 EF 39 EE
 3B BA A4 3D 9E 92 80 25 DC DC 85 85 AF 6A 1C F4
 B2 E7 72 19 E9 8D 77 52 0B B1 58 34 33 E2 15 01
 0A FB B7 3E C2 09 89 4C B5 F8 C4 87 3B 19 AE F0
 29 D4 A1 92 0C 0B 95 38 9A 15 11 30 8B 42 7D CA
 0C 07 44 57 C2 35 FA F1 4B EA 1B 7C 30 82 6F 34
 73 CD 6C F6 16 52 E3 97 3D 6F 3D FE 81 49 4E C0
 E7 06 9D BE FF 80 33 37 D1 E5 CD 3C EA 10 BF 98
 5F BF E4 B4 1E 07 2E 88 EE 7D A3 EE D1 59 4B B6
 09 43 79 9F 13 B1 23 A0 43 D6 57 FC 8C D2 5B D5
 D4 33 61 8B FF F8 A9 44 F8 85 BA 40 86 AA B6 AE
 26 76 45 F5 05 DC 48 CF 39 68 47 94 A4 AD 84 7B
 07 06 40 FC 4B 25 5B 72 3A B8 DD 96 6A 3E C7 56
 42 D0 33 9C 97 41 B8 1E 31 60 DD 10 53 0E 41 C0
 CD C4 EC 88 3F 59 4D 26 7B 17 CA 8E 42 C2 F3 BC
 10 10 BC 20 06 48 82 3C B2 B5 E9 E6 0D 01 CF 97
 53 ED 39 40 FF 43 9F 46 56 01 C2 DC B2 0E 65 8F
 DC D1 32 94 88 76 20 C3 C2 39 5A D8 68 B2 D6 1E
 1C 4D 44 6E 7E 76 D1 DE 50 11 55 20 20 8E FD 70
 00 E2 11 B1 09 33 F1 4D 8A DC EC 00 9D FC 74 14
 B4 AB 31 60 93 F6 2E 06 FE C0 C4 2A C8 FF 6C AC
 34 E3 C9 92 FF F8 0A 91 E5 66 00 63 8C C4 9A D0
 F3 B1 96 1A F5 BD 4B 12 37 71 E1 C3 D2 00 85 36
 D7 16 22 74 99 AC 00 81 29 4A D6 B0 9A E7 E7 96
 6F EA 2E 09 72 7E E9 AC B5 AB 5C 41 53 99 FB C9
 01 B5 91 F7 71 90 6A 7B 9B 36 C8 9C 6E 6D F8 9B
 B9 70 F3 A2 C5 27 B0 4B 69 33 29 E6 DC 0F AC 3D
 1E 7D 81 66 90 A7 CC 66 6A 09 56 BE 6D 36 F3 AD
 DD 46 C7 A0 F0 E2 D9 5B A1 01 07 82 20 0D B6 D9
 A9 C0 0F E6 0B 4C 31 16 53 D1 11 1B 69 4A 9C 62
 20 65 33 12 E0 FB E2 7A 40 1A E4 87 26 57 D5 23
 2B FF 77 37 2B B4 64 84 D8 C0 37 97 9F E1 91 84
 88 68 0B 93 E9 41 B9 3D D7 9D 01 9E 71 E3 AD 3D
 50 D2 C0 CD 6C 41 18 A6 21 3F AA 44 D1 9F B4 1B
 97 3F F5 46 44 1B AA F0 49 09 5C 36 04 51 CD 85
 4D 41 71 F6 36 F6 EA 39 D0 8F F1 DF 43 76 82 CF
 CA 94 93 33 65 33 47 16 B3 E7 82 52 77 97 88 27
 BB 8A C7 E4 0B 90 7B 22 E7 09 03 67 15 73 7A 4A
 E0 4F B5 3F 41 1E F7 9E D1 40 A0 CC 29 42 4D 32
 40 BF FC ED D1 63 22 D3 14 3E 1F 1F 38 37 99 52
 33 58 50 E2 DA D2 AC 9A 6B BC 56 3A B6 16 82 E9
 F0 6A 21 EC 40 09 59 75 DF F1 E7 6D C8 EB BD 27
 9B 89 60 2B 08 0F 09 70 5E 4F E4 4D 99 A7 87 1B
 E5 23 9C B4 8F 2D 20 FD 85 51 47 DD 24 82 1D 37
 AB 01 FE 2B C2 A1 9B DA BB DB 27 A5 2F 2D 88 68
 A3 81 57 59 76 CD 4B 88 48 76 8E 71 05 FD 1E 10
 50 30 68 D7 F7 06 7F FF AC D8 47 75 E9 BC 89 16
 2B 29 B9 A4 CD E6 9C 56 30 21 4A 92 B6 97 FB 73
 66 5B 17 85 75 2A CA 20 4E 87 49 C7 19 9D CC A2
 A9 C6 0E D5 7B C9 F9 3F 70 9B ED DA 90 B6 11 12
 39 F8 56 58 C9 D6 B9 82 00 2B 0A 83 74 C3 1C 91
 97 6E D4 C8 CC B2 35 72 29 B2 50 E6 D3 1A D5 57
 FA E6 A7 37 1B 03 95 D7 B3 A8 75 43 BD C3 E9 A8
 02 D2 96 96 78 8B C7 8A D9 A1 C9 5D F8 DE B3 9A
 DC 2F 00 48 83 E3 A9 54 6F A8 34 34 3C AC 9E 67
 E2 99 02 E7 5C 44 81 60 17 71 4C 1B 8B 28 01 08
 8E 21 5D D3 F2 2B 67 6E 00 DF D3 FC 94 F5 19 CE
 3C 0F D9 CD A1 91 30 99 AB 1E E3 B6 5C 43 19 40
 58 8E EB DA BA 89 8C 29 E3 E1 88 82 DD 5F 7C BA
 F0 96 94 8C 98 40 02 B7 80 F4 FC 03 30 0E 97 4B
 9E C1 AC A5 2C B8 96 19 C3 B2 2B 04 3A A2 B8 D6
 B3 45 EB 21 38 44 52 2B 6A AB 7B B5 1B D1 6C 0E
 36 C7 25 BB D2 F6 5B 53 7D 94 FE EA 1B 0E 52 DD
 B4 87 A9 7B 09 D7 B6 09 C3 A1 91 FE 6D 51 52 51
 6B E1 6F C8 8D 51 DE 31 69 3A F3 BB 97 4E 41 C4
 14 01 57 03 31 17 FC D4 01 CE CE 3F FC B6 CD 24
 6F 9F DB 49 46 D7 BA 10 B9 B9 64 55 17 9E 93 F3
 4B 3E C6 93 17 B3 FB 08 43 CF 1B E8 47 F3 71 18
 17 4B 5F 80 BF 0A 0A 33 D9 F7 33 04 21 66 C1 C9
 98 D6 C5 3F 05 0F EC 7B BA D9 E1 2F 55 74 50 24
 D0 21 11 F5 5B FC 73 E9 D1 54 4A 9A A8 70 EC 58
 5F 5B 9B DB E1 BA 82 AE 6F EA D9 CB 76 95 10 97
 C1 FA C7 16 0A F3 06 F6 38 1D 23 27 32 94 2E F8
 DF EB CA ED 2B 48 EE 71 0B F3 EE 8E 51 40 F9 A3
 A4 9E 22 D6 8F A1 B6 0E F6 B0 C0 C8 13 D7 9D 8E
 93 01 D7 53 C3 9F 29 DF 31 C9 9B 5D 02 46 DE B3
 69 E3 02 69 E3 75 57 32 A5 81 27 18 CC EE 78 54
 49 65 F5 43 D1 17 40 D9 82 FD ED 15 B9 90 63 AC
 D8 6F BE EB CA D7 B5 5D 45 36 2E D4 43 9A DC AC
 33 4A BF B7 3B 32 4E 6B 4E 71 36 54 38 96 E8 D5
 A4 FF 1C 31 61 CB DC 98 D9 E0 00 68 2A 71 B0 99
 47 40 8E C1 B1 DA 13 DE E2 64 6C 47 8E C7 D4 37
 76 34 A1 ED 32 21 51 FA 2B 22 EB 80 0B 72 4C FB
 6C 01 3A F6 09 B4 82 90 40 1E 45 C5 F0 13 08 FE
 48 DD AF 72 F3 A8 B0 E1 48 AB E0 5E 93 38 AB 1A
 51 AF 73 3B 72 91 CA 8B 93 91 8D 11 B2 AF D6 CC
 03 71 FC 23 D6 14 2C 75 91 39 24 B7 0B 95 30 8F
 DD 53 31 37 5D 22 E6 AC 98 71 35 67 4B 16 05 19
 E5 EC B0 11 24 79 DA 7E AC 0B 11 B8 B7 CE 0F DB
 00 D1 51 FF 80 86 B3 A6 D7 E5 D4 36 BB CF 55 C2
 65 1F 76 19 B2 1C 43 19 87 3C BA 6E 93 D9 76 A5
 68 54 01 20 1B BC C9 01 68 33 89 14 28 99 2B 3E
 29 80 12 2E 4A 06 76 7B CB 30 35 70 44 81 F7 B5
 27 CA 9C 07 07 62 8C E0 5F E5 F9 D7 F3 6B 4A D7
 73 D0 5F 27 D2 9B 95 3A F2 94 6F 1B F0 F0 7D 85
 41 14 64 96 73 B3 02 85 D7 5C F9 CD EC 4E 5E DF
 8C E6 0A C7 2F 1D 67 F8 FF 68 1A F6 D4 91 CD EF
 4B AD C6 67 E2 BE EB F6 B5 D8 BD 1B 00 E3 D0 53
 73 FD 10 D9 2A 06 30 51 3F 14 B8 9B 7D C3 E9 15
 78 60 26 DE FC E2 48 EB 4E 4D 53 E2 BF 65 71 B3
 C0 0B 21 36 EB 16 53 59 63 C5 B5 40 65 6F F8 D1
 84 BC 07 24 1C 63 D3 84 F4 18 BB 52 D4 05 46 FA
 7A 5D A4 BB 8E 14 36 71 ED B9 D6 21 CF 2F 34 86
 9B FE 06 C8 BB 2E 0F 11 A4 FB C7 10 A7 09 68 F0
 45 9F 95 09 80 04 5F 4D A0 48 8D 0B DD 03 8C E0
 83 0A 60 94 E8 89 CA 9F 98 5E 0F 83 E1 B1 98 1D
 E2 66 DB 4A E8 0A 8E CE 97 E5 81 E8 4E BF 35 32
 20 B4 4E 79 A1 10 B8 90 AE FC 06 D5 04 C5 23 B8
 04 DB A7 5D B2 BD 6A 0F 06 0B 15 B2 63 01 3B 7D
 1F FF 5C A8 8B 43 F0 F0 1D 38 8C EF 59 BF F7 E4
 DF F5 6A 24 F2 68 0E B4 C6 BA 5D BD A0 14 E9 CE
 9E 21 62 C4 83 90 12 FD 75 95 AD 49 F1 17 29 13
 5E E2 74 81 7F B2 FB 71 F1 F9 17 A6 64 9E 94 C7
 8D 85 65 58 73 90 41 E4 F6 61 89 34 9B BB 0B 44
 1E F1 BE 4C 1F 8E BD 00 89 62 D7 B5 4E 0E 06 80
 1C 83 F7 AF 7E DD 91 B4 9D E7 17 3C C3 E6 66 6C
 BA 75 CD 08 B9 B7 2C 5F 2C F7 AF F3 54 54 8A 43
 1D CB 58 A4 B7 D7 BD 2F 5A 49 5B 62 69 F9 D0 C4
 84 DD 52 34 8C 32 63 BC 7F CA 6F 73 73 C8 38 55
 78 5D 2C 2F D4 E8 71 20 23 0D CA F2 0A AB E3 72
 9B 0D 0D F0 49 C6 73 38 2C 46 0E 8F B1 E2 DE 19
 4C 45 1F D5 28 6D 16 50 BC D7 6C E3 9C EF 48 F3
 E8 4A 36 E9 83 23 10 0E 5C A2 20 A4 61 D6 A9 26
 2B 21 48 72 2D B6 B9 4E 00 58 53 FC AB 2F 28 18
 FD 2E 15 14 F1 95 A1 1E 5B 70 E5 43 66 56 DE 53
 3A 20 65 A1 B3 3B E4 6B C4 04 87 53 95 A6 6A F1
 6F 52 BC 7B D6 8B 70 F5 DF 76 1C A8 3F EB 6D 9E
 9A 11 DA 03 60 D0 E3 D4 F8 08 E4 4B BE 8E 6B FD
 96 03 E5 11 71 CB 12 98 9F CF E7 14 1E 5F 14 9B
 82 51 76 4E AA 86 98 FD 6D 03 83 09 E1 C8 BB F5
 18 0D 77 FB BA 3E 6F 71 1D E2 56 FA 32 5B B6 C5
 A4 18 E2 BE C1 86 26 FA 1D 49 D2 3E A8 82 6D 25
 1A 83 C8 29 35 7C E6 FC 73 A5 98 2B E5 51 50 7C
 95 2B 23 3C AC 13 E1 0E 40 23 98 5D F9 3A 81 19
 F9 DF D3 B2 EF C5 6F D4 73 DC 21 55 8E 6C 5A 03
 17 CB F4 28 A6 AD D4 75 0E D9 C3 A8 8A 67 F9 0E
 DD B2 29 7C 35 FC CB 49 8E 88 A0 09 70 24 77 93
 AE 58 08 5C 14 0F 34 3F 0F 54 1E B4 13 58 C0 CD
 CB 43 A5 E2 FB 72 2E 0B 30 FD 24 6C 26 C2 BC 31
 8E DD E6 32 91 BF 5A 4B 3E 2B 35 3B E4 F3 37 A8
 68 94 F3 9E 86 E1 01 85 D4 84 10 8D 62 1D B3 0E
 D6 51 F3 C9 56 21 62 AE 98 CA 79 39 C9 11 04 0F
 5E 9D 34 ED B0 C5 C3 37 29 A7 EF 07 3C CB 65 F3
 B5 9A 11 D0 E1 84 74 08 35 3B 43 85 59 04 C2 F5
 CA 77 46 AC 83 F1 F2 62 3E 83 77 ED 57 D3 C9 4D
 F7 B6 D2 07 E3 CA 80 44 93 9B 8C C5 46 01 33 63
 F0 A0 37 6D 36 85 84 19 7C FF 12 97 22 64 C0 85
 3C C9 65 4C 32 15 B7 0F B4 56 61 01 68 67 E1 5D
 12 2F 2A B7 96 07 72 2B 26 1B AF 9A A8 B9 86 A4
 60 85 7E 46 A5 BA 1B D9 09 34 98 46 63 44 F0 C8
 CC 4C F3 5E E6 DF 29 61 EC 02 FE 9E 33 88 0E 17
 8D C4 CB 22 F8 37 20 E3 50 52 10 AE 6E D5 C7 DC
 E6 7F C2 D8 54 4A D2 BA F8 F8 6B A8 1A C4 C1 5F
 1D B0 E2 A4 7A A0 05 91 18 5F 53 C5 4E E0 14 CE
 C7 82 BE 8E F5 66 19 73 1B 9F 65 7F 3D 77 2F 1F
 72 C2 4D C9 57 35 99 2D DC 8B D0 99 CB AE 3E 9E
 4C 97 60 51 B8 47 23 F3 40 32 7E 5F CF FB 71 C5
 BC 36 CE EA E4 23 87 EB D6 E5 B0 55 40 FB B1 C1
 51 2F F9 AC CD F2 A5 48 F4 0A 69 66 3E 52 B0 76
 94 18 84 9D 80 81 77 7C 87 84 90 02 C7 F8 09 AD
 C2 1B FC D1 81 69 F3 78 12 C2 8E E5 DE 1D 65 53
 38 DB 0E 41 90 64 23 38 1A 73 3F 89 EF 85 FD 56
 79 B8 66 0E D4 D0 6A 51 C6 9F 71 69 E6 06 F3 B7
 CA 7B 44 C5 54 2B 74 E7 CF 6D BE 68 61 BB 10 E8
 FC D5 40 BE 82 1A FB 1B 7E 8E 53 A6 21 69 50 CA
 CE 6B 04 D3 98 80 AD 71 4F FE 14 10 B2 6A 4F 20
 F1 CF 67 E6 37 F1 6F 65 C7 31 62 52 50 60 94 11
 3B 8A C8 76 E5 FE DA 38 B1 27 43 0A 07 3F CF 39
 19 5D 52 C8 BE F2 A2 1A 57 01 25 54 81 67 79 39
 07 07 43 FC 5B 5F 0A 92 97 EE 60 87 77 F0 D5 36
 2E 61 8B FA 71 FB F7 B8 86 AB 93 7B A2 2E E8 A0
 56 09 A6 A5 C7 DF 36 F5 4E 20 52 F6 7E BF F2 56
 E1 67 8D 42 5D A6 06 28 2E 9C 0B A7 FD 5F AB F6
 C4 A4 E0 BB 74 2C 3B 15 EA 00 21 F8 AB C6 3E 89
 3D A7 5F 6A E5 FB 06 2A 80 EC 6C 59 6E 14 A7 71
 3F CF 7A D0 6A C6 EF 87 21 4A 20 9D ED 5D 3D 4D
 9D 3B 39 35 C1 3A A4 AD F3 1D A5 EA 34 CC EA FA
 18 C5 15 BD 5F AF 09 6B 8B A8 0B 6A DF 32 42 B0
 29 D7 94 5A EB A3 F1 94 F9 08 59 8B 5D 2F E2 94
 B7 31 B3 EA 75 5D 74 8A 8E B2 36 45 23 C4 93 5E
 84 53 B0 3B 13 D2 0C 7D 91 B0 5F DD 7C A7 BE 65
 87 BF 39 D3 74 DC 24 DB 3B 17 A9 C5 6C 71 49 74
 7E AF 91 71 42 3F 59 8B 50 FD F8 1C 58 BB A2 2E
 A8 E4 4E 46 7D 4C 35 3B 37 88 8F 33 F9 60 1A A3
 F3 96 5F 41 7D A0 D7 6B A9 E0 0D 2A C5 F0 B9 AD
 23 A8 79 2F 32 A3 31 65 CB 63 6D A3 E5 34 EA F1
 BA 9E 8A 0B 4E CF 07 D4 7D BA F1 EE 36 BF 15 11
 50 91 AF B9 04 42 21 A6 54 1E 6B D3 CD 6B D3 39
 74 16 8F D7 6F 8A DF CF 6C F3 5A 1B 32 C1 CB 6D
 2F E6 DC 97 EB 76 A8 C2 3C CC FF AA 94 B4 A2 D3
 FF 99 23 15 DF 1D B9 0B AD D8 0C 41 B8 71 5D E9
 58 72 C2 72 C6 78 64 82 56 86 C8 6D 65 6E 7C 41
 CB 14 2B FB C2 07 FD CD 0B CC CA 21 FF 44 8D F7
 DF A5 CF 88 AF 96 FB D7 8C FF 89 AC D9 C5 C9 A7
 86 76 63 17 00 F4 89 37 6D BC 0D 45 7C 19 EF CB
 F2 52 5C 7E 44 0A FD 3E DA 2E 8D 0A E0 C4 1B 3F
 1D 3A 55 92 FE 36 8F CA F2 41 29 D5 1C CB 3E 09
 67 AF BE 36 2F EA AF 37 1D 5E AA E3 5E 29 34 0F
 F6 4F D3 DD 96 85 37 F9 DF A3 B2 FF 6A B2 0E 38
 4C C3 27 99 AC 9B 56 AB C7 6E 48 43 5A 50 3B 1B
 77 A4 F2 71 BD EE CF A7 EF B0 DC 9F C3 8A 06 6C
 17 75 25 71 C6 91 FF 83 ED 93 41 C0 01 25 FC AE
 C9 25 1F FD 55 B5 85 08 12 E5 A6 97 E3 CE AB 10
 AB DD 67 88 50 52 E2 DF B4 2C 2E 8A 61 4E CF 77
 C7 7A 06 F9 6B BC 6C A1 DC 39 75 78 12 73 77 BF
 77 61 0B 3A D5 11 22 1C 0B 4D A1 CE 9B 43 B5 99
 EF 6A 16 51 CE EA 3E 65 0C EC A5 5D BF A0 B2 0F
 F7 05 DE 24 A2 F1 B9 CE 6D 14 F5 B6 D3 17 D6 17
 33 A7 B3 BA 82 BA DC 57 8C 43 BA 31 CB D0 B9 AB
 93 E5 1B B9 31 79 FE D1 D5 4C 39 92 6F 4F 77 F0
 88 14 42 50 AE 0E 34 E8 5C CE F7 32 D6 C5 B3 B4
 0C E5 44 36 CA 02 4D 97 E0 20 A8 64 03 A6 8B 72
 F0 F3 A3 0D AA 4B 33 88
* End 2266054987 3811412312