* LTspice Encrypted File
* 
* This encrypted file has been supplied by a 3rd
* party vendor that does not wish to publicize
* the technology used to implement this library.
* 
* Permission is granted to use this file for
* simulations but not to reverse engineer its
* contents.
* 
* Begin:
 CA 2B 38 09 BA 8C 3E B6 B8 D6 0F 58 C4 21 22 C1
 FE 85 7E 29 52 0F 07 8C CC 08 74 5E F1 7A 96 C2
 AC 62 54 83 2E A5 B3 AA BF 99 2D 04 4B BD 49 43
 41 27 B3 BC 81 97 8E 2A 7C 6A CB 70 F9 5C 69 DC
 02 FE 2E 2E F3 42 08 0F AE 15 DA 99 74 D2 73 60
 C6 BC 4B 6E 74 20 6A 4E 99 8F 86 4B 5E 1E CE 7D
 EA 32 23 5E 1B CE 50 E3 4E BF 8C 4A 8C AC 67 A4
 6E 20 EE BF 90 88 64 41 18 EC 76 E2 15 D5 4D 6D
 C1 09 25 2D A0 D5 BE E3 2D 73 62 2A D7 CA B4 3B
 0D EB 8A A7 BE A3 44 EC 06 C7 80 BA A3 0C 2F 36
 BF A6 56 73 5D 84 DD F4 4B 99 F8 CB 5E 50 CE 49
 12 6D 53 5F AC 01 60 8E D4 3C DA 14 13 4F 7F 4F
 A6 55 6A F8 BC AD 98 EE 8C F1 E6 15 C5 73 42 24
 E6 2A 1C CD 7C 2F 99 77 FF AE 3D BB CA 3F AB E6
 6F 4E 06 7F 6B D7 61 AA 5A E1 7F D6 9C EF D3 2F
 F3 11 05 04 E9 ED 11 0B FB 06 70 05 06 AD D2 2E
 17 AB A3 43 66 D4 6F 63 AB 0E E9 23 0E 5F F0 B6
 AB 41 5C 6F 2E B3 61 13 F7 54 96 67 47 01 04 F2
 1C 0F 49 16 1C 56 47 9F 18 1A 48 69 A7 ED EF 75
 D7 10 CE 02 25 40 3B F9 B8 A4 70 25 7D 85 59 09
 27 9D 6F A9 EB DC F1 4A 06 23 99 07 A5 62 83 01
 EE A2 56 59 B3 39 FB DB BA 73 74 56 37 B4 D4 04
 A2 A8 0E EE B8 43 9B 90 21 73 FB BE 91 D6 EB 36
 82 95 62 BB B6 4E 34 DC 80 E1 02 BA 75 D4 8E AF
 B0 A8 EE 95 3F DE 3C C5 7F E0 05 9E 89 09 69 A2
 9B B3 03 53 68 71 25 E9 34 7A EA 84 6D C0 9C 7F
 E8 56 A9 C6 64 FD D9 11 CE 3B 85 9A 0B 25 D6 FD
 5D F0 BF BB AA C5 4B 12 9C 5B F2 F5 33 5B 84 31
 A1 76 82 15 54 E6 8B 1D 12 4B 38 82 82 E1 22 DF
 95 EB F2 A0 BB FE D6 11 30 8B 2B 78 28 33 68 AF
 7C 07 30 14 AB 19 64 78 08 16 AF 8A 7B B8 71 0F
 68 19 68 62 78 0C F5 5B 3D CA 96 F7 DA E9 72 CE
 A5 BB 8F 59 52 45 C6 48 B8 1F 5C 4E 50 6C C1 B7
 A1 57 A2 F5 B3 BA BA FA A3 8A 98 1B 5A CD C9 CC
 E5 8F 0A D2 4A 55 7B 04 5D 88 D2 CF F8 83 B9 1D
 15 C6 0D FE 7D 6B 4F 94 F4 7D F9 CA B8 26 B3 A9
 13 B3 A7 DE 08 F0 CA 1C 93 F3 16 3E B4 87 C8 21
 AA 9C 16 AA 17 A5 1F B8 B4 D9 21 2C 24 83 05 56
 69 58 31 70 DE E1 08 05 99 0E 7D 39 F0 AC 8F 05
 81 F9 D3 FC 7D 09 10 90 1D 7E 68 25 45 1B 53 35
 C2 DD 5C 84 AC 92 B9 20 2A 0A 41 CD 25 D2 4D FD
 9E 87 8B 86 19 DC CB E8 86 5F D5 A0 D1 78 1F 27
 B9 7B A1 D0 63 6B 8B 85 A8 72 04 C8 FC 29 E8 88
 D7 F7 83 9F 62 B0 20 D4 EF 3A 20 17 67 50 AA 99
 FB 03 B8 9C AF 77 A5 5E 01 75 E3 B5 DB DC 40 21
 B8 23 EA FC 05 47 BA 04 E7 D6 1B 43 23 2D 6C F9
 FB D4 9D EF 8D A8 E3 E8 87 84 BB 15 C8 E7 C6 C2
 48 14 B5 98 E5 79 3A 0B 41 EF 26 DF ED 07 98 93
 27 8E 64 0D B3 F0 71 C9 23 67 9D 91 14 08 59 48
 FA E6 0E BE 8A B4 12 46 46 6E 44 96 FE CA 07 B9
 AF A9 7A AA E8 A8 7D 07 7A B8 BD 70 1D 66 BE E3
 29 D3 3F 02 2C 90 5E 70 AD BA 94 48 83 E7 1D A0
 90 3F 47 10 F0 44 43 F3 11 53 CC D2 14 BD 56 39
 5A 06 2F 04 FA 9D 47 2F C9 6B 4A B4 63 8F B5 FE
 C3 59 E0 2A 83 8B EA F2 E1 FE C5 2F 19 E6 6D 70
 BD 47 0F 3B A9 32 18 1E F4 DE D4 29 AB 31 13 34
 10 1A DD 03 4A 76 2A 0E 91 90 8B 06 C6 DB 87 0E
 2C 69 27 7C B2 B9 61 CC D4 41 6A 93 70 73 E1 A4
 69 19 A4 3E 41 7F 71 D0 0D 9A E6 54 86 CF C2 7A
 5F A7 2F 8E 76 69 32 54 3D 51 48 11 96 BE 47 02
 28 7B A2 72 AC 76 5E 93 75 9F 01 F6 85 03 E4 39
 44 04 BB F1 60 21 20 C3 9F D2 2E 05 AC DE 39 96
 2A 19 7E D1 FC 8F A1 8C 84 B6 70 57 84 7E 49 A3
 EC 63 6D 3D 75 BC 93 FB 62 64 7C 8D D1 EB 44 26
 9C 47 CF 52 D6 65 F6 3C B8 62 CA 1A C3 91 80 3D
 C6 85 57 AC 12 83 33 0D 3E AE 1F B8 B1 B6 91 B2
 C4 E9 81 59 9C 2A AC D8 A6 C6 B3 E7 BE 77 0C 56
 E8 AF EB 44 30 95 82 31 F6 36 08 11 EA 1B 17 C9
 5F 0F EF EE BB 09 B1 8C 1F 8B 13 73 0B 49 AB 6A
 E3 4A 53 CE 51 6C 65 BB CC A1 89 AE 47 CA AA E7
 92 B8 84 2B 6D 87 43 90 E8 50 53 2C BB ED 74 42
 86 B9 43 89 95 0F 20 6C E4 F2 B3 27 FB F1 A0 31
 1C 07 3E 4F 7C 8E 68 20 E9 6A B9 2E 5A 78 4C 50
 EF 0B B0 C7 53 B2 46 24 BD 6B 1C 57 76 28 B4 82
 70 2B 3A 75 72 37 37 EC 85 0C 59 CB 2E 7C 16 55
 DC 22 FD 08 6F E7 9F 37 4A 68 36 E6 50 93 B4 8B
 5B 41 48 48 8D EE 8D 98 A5 4E 1A 52 2B 42 A4 65
 87 96 48 EB FE A7 1C CF 54 88 0D 8D C4 5E 7A B6
 6B EA 7A 77 AF A3 EF 4A 58 3E 4B 34 67 1D AA 6C
 D0 17 B1 6F A6 E6 C3 30 A1 A5 64 1F 3B 11 2B 93
 8D D3 1F 04 AC 84 11 A7 5F E2 B5 F0 79 73 55 DE
 09 08 27 20 93 EA C8 E6 41 7E 17 51 4D CF 87 1E
 0B B1 7F 50 02 1A 97 EF 0F 0D DA 7A 22 F2 C6 A3
 25 DC 3C 8B 7D 92 D7 AA C8 7F F7 62 3A FC A9 28
 46 56 B7 1D 5D 94 0C 17 B3 0E 09 54 DE 8C E5 3C
 FB 91 B1 2F 49 3D D3 AA 45 1E A3 03 2E 13 D8 81
 33 E5 62 A8 0F F9 04 2B F3 64 8B 95 84 D6 3C A4
 19 4B 53 AC 17 9D 59 1F 3A 51 51 E2 A7 96 9B 06
 C8 FF A2 18 74 21 CD A7 FF EC 37 3B 60 19 C6 36
 F1 35 BB 7F 68 0A 1D 93 1F D6 61 55 A2 6F 07 DB
 0D 04 3B D3 43 3E 88 AF 3C 54 9D D3 61 94 75 AB
 6A E6 AD 63 15 68 78 C4 53 20 15 D7 BE 16 49 3E
 61 E1 3E 5A B3 5C A4 C8 60 75 DD E0 66 D0 95 EA
 EE B7 58 D6 6C DD 2D E4 59 CD 25 D6 27 E7 1A 54
 80 05 1F 6C 40 C8 58 C0 CC 6D 42 D3 07 82 44 5E
 63 50 7B AC EE 51 58 B5 B2 2C 99 DB 6B 0A 46 90
 5E 36 39 78 5C A3 76 DD 74 1A CE 81 51 90 A7 5B
 BB F7 EE 5F 10 51 83 44 BE D0 02 BC CF B8 B2 9E
 E9 BE AA FE A4 99 E7 51 6A A5 95 9C 3C 59 1A DB
 F2 34 21 43 BA 69 E1 F1 C7 9E 3A DD 81 99 F4 B0
 B3 E1 A0 00 2E F7 99 49 27 43 5F D6 EF 53 2E 5D
 B3 22 6E 0A A8 72 C4 09 C1 CB 7F EA 9D 30 4F A1
 A3 75 8A 10 D6 08 46 13 9C 6D E0 2C 33 01 E1 2E
 05 A2 47 5C 5E B9 2B 80 A3 F3 B6 26 77 54 46 33
 09 BD 50 27 34 70 26 90 E3 FB 1C 33 76 40 D5 6C
 20 38 8A 87 B4 0A 07 69 0D C0 C5 70 F4 35 FE 50
 5C 46 CB 9D C9 F2 31 C6 8C 69 1E B4 D4 B2 B3 24
 7D F2 0E AE 01 1F 01 0D 33 0B 2D EF 33 FC 89 D8
 67 77 EA 81 3D 8E E9 74 D4 18 BA 4A CD 04 DE 49
 1A 01 24 B2 DF 33 63 E8 1A 8A 3C A2 8A A7 43 3E
 39 33 CB 98 81 2D 0C 80 AF A1 84 03 EB CE BA E0
 8F 33 FC CE B4 63 60 0C B1 01 6B 85 0B 22 BE FE
 B4 91 C3 DF B4 76 16 73 5A C3 FF D0 2E 66 8E 05
 6E 78 6B 7A E7 E0 00 32 E7 CE AD 84 CB D0 68 F8
 98 2C D4 4D F9 C9 3F 4E 85 9F 03 7D 3D D9 36 DA
 85 68 EA BA 54 03 25 08 A7 FC 70 C0 6F 8B 58 C6
 8B 81 6E 07 17 DD AE 52 1E CC D1 68 21 F0 1F FA
 AC 5B 3B 6A 15 D6 BB 53 89 6E 6F A8 EF DA CA F4
 8D D6 E3 BD 96 E7 48 CA 45 94 90 D9 90 39 CD 8F
 B7 77 39 8F A7 52 C0 11 50 CA 06 0E CD 8E D7 AF
 AB F8 BA 11 46 75 54 56 86 64 C2 7C B9 C9 00 9E
 05 2D 12 B8 D2 FE 4A 91 07 17 78 E5 82 AD C6 1B
 F4 56 8C 4F 84 E0 FA 9B D0 1C 55 4E 5F 68 A4 E1
 1B 6D 8C F8 4C 31 F3 96 83 8F EC 9E 01 C0 96 A5
 A6 E8 E3 62 08 70 FF 8E CF C2 97 D1 4A 6F BF 11
 05 65 F1 EF F1 C3 01 BC 90 4C 52 42 F4 55 06 67
 4B 25 83 46 1D A6 55 A5 FB FF C7 83 10 3F C7 F7
 7D A6 5E 4D ED 4F 3E F8 91 96 B2 CA 5B 77 43 68
 DD 74 3F 41 7B F3 B7 6D E0 0D 24 12 CF A8 A8 C5
 1C 7D 07 B4 76 6E 6C 54 DE 26 33 FF 03 94 52 47
 5B B7 8F 68 4D D6 1B 14 8B 9E C4 F3 68 93 01 44
 DE A0 42 9E C3 4C 33 40 09 56 7A F1 5A 75 8D 42
 4F 8D A8 78 5E E6 2E 2B 7C C2 14 6A D0 C0 8C C1
 13 2C 01 34 E9 7C 4A 15 BF 86 5D 17 BF 91 B7 5C
 0A EF 37 91 FD 63 58 DA 96 04 DE E8 AD CF AC 47
 3A D0 FE A1 E7 6F D4 18 43 18 81 3E 23 FC D2 B4
 CF D2 84 C7 15 F5 2C 3E 5C 3C 60 2D 19 31 74 1C
 9E 1E 98 EE 3C 3C A5 F2 FA 6B 92 06 5F 24 FF 72
 4D 98 E0 43 6A 12 11 92 C6 05 44 A3 61 62 D1 B3
 D2 7B 2D 4F F0 B5 1B DC CE B7 AD B8 D1 41 5A 69
 66 A4 8E 40 A5 EF E7 47 0E BB 50 7F 16 B0 A2 1D
 A9 30 33 C0 7A D3 7E 0F 9B 8D 30 FF 0C 95 7B 6B
 A2 B1 C1 F0 08 DA F3 A7 16 11 D7 8D BF A9 1F 4F
 15 6F CA 0E 69 08 15 C3 41 6D DB 73 B6 5D 60 3D
 38 5C B6 13 F3 83 12 22 59 B4 3E AC 7F 90 D4 23
 B7 D8 02 F2 D9 CC 41 0B AF 77 D0 08 A8 D0 B6 0B
 E2 6C 81 FC 03 31 48 35 8A 8C 33 D6 0D B1 60 A6
 3A C8 48 55 22 2E 14 5B 0D F2 0B B3 82 93 EC 3E
 CA F4 90 77 81 B1 60 2C 12 FA 5F A0 10 3C DC A9
 B1 03 CD B7 4A 60 C5 3E 02 EE 98 91 60 94 14 25
 D0 6F 4C 02 3E 7D 44 D6 A6 51 5F B5 B0 6E A9 D7
 EE 77 35 27 8A 3C 78 1A 2B 5C 86 8B 72 BB 36 2A
 7D 7B C8 EA BD 39 3D 33 6F 7B CE 61 87 7E E2 8A
 B2 B7 C4 03 46 18 3C E1 48 89 73 C7 F1 19 70 BB
 99 74 69 B9 BE D9 0A 9F A2 DC 93 CC 9F C7 34 1A
 4E 96 47 C6 97 E3 CD 56 F8 0E 74 33 49 3C 67 25
 07 20 B5 7C 6E E1 25 95 C6 18 29 CC 69 B2 03 EC
 CC 26 D9 69 0B BA CF C7 1A 9A 87 59 E1 AE E8 2F
 61 8E 47 F4 C6 FA F8 F0 70 03 C9 7C 8B 6D 54 76
 4F 03 57 1D 74 69 A9 21 5B 2A E9 4C F8 2D FE 2F
 3B C9 26 74 4B AE 93 62 A0 53 BF 47 EC 62 0C 46
 AC 40 84 39 DF 24 9E CA 9B 3B 64 F3 FF 87 9C 51
 16 B9 3D D4 D4 FD 81 BE 82 0E C2 CE D5 18 CD 2A
 B1 DE E2 B6 A2 56 B5 53 6C 96 7E B6 77 7E 7D 48
 F5 A7 32 36 C1 4E 84 4D CF 86 3F 8C 5D B3 F3 14
 CA E3 73 D9 7E 45 28 E6 BC 5D C3 59 71 FC 81 DE
 E7 43 B6 6D 20 2A A2 69 BB D2 31 E1 2C 09 C6 FE
 25 E3 54 77 35 BE 5A 5F A6 2C CA BA A6 DD E4 6B
 42 74 A9 A7 88 30 CE 6E 0E F3 E6 83 58 D5 DA 78
 8A 94 8A 33 A7 20 10 DA 91 18 02 22 70 8E 5C BE
 C2 E4 59 43 3A FF 54 40 78 1B 39 B5 B8 BD C7 9C
 1D 88 99 24 2A 29 7C BF F5 E2 B7 BF FF 4D F0 E5
 F3 BF E6 13 03 34 64 F8 34 A7 A5 1E 37 4B 1F D9
 97 7D 15 EE A0 A5 59 9D 25 75 1E 1D 57 65 7B C4
 1D FC F3 DF 59 89 94 29 FF F3 EF 22 33 B2 C9 38
 5B C0 52 10 42 E2 13 AF 02 FC 18 9A 19 42 09 96
 03 86 85 6A 1E 8B C1 DC A0 F7 3D 85 D3 74 A7 68
 93 77 88 C8 A5 93 62 83 FD 60 70 60 BC 6D 4F 98
 E0 3C 79 33 88 4E 83 31 15 A8 72 16 EB 0C 47 70
 95 29 FA AB A4 7C 95 09 D9 6E 9E 40 AF 6A 0E CE
 74 E7 0D BE 5E F4 8A AF C2 23 02 7A 32 1D 28 62
 63 A6 C1 68 8C 3F 51 2B 1C EF 1F F8 EF EE E9 61
 9E DA 4A 8D 1B A4 ED 47 DE F9 FE 01 48 EC 5D C6
 92 02 24 93 73 8E 9B 54 3D 52 36 A9 88 71 FC 1A
 3E C7 2D F4 12 74 A9 F1 0B F7 03 07 53 D3 A7 5E
 79 80 CD F1 F3 AC 95 C9 12 87 AF 43 A3 23 F6 A0
 EB 38 87 AC 13 58 27 33 76 14 BB EF CA BC 19 8A
 64 8B 73 A7 6B B1 D6 89 8A C6 92 AF BD 01 A7 AB
 D5 28 0C 82 BF 10 4A B4 51 50 DE C1 82 EA 4F 84
 07 F6 68 EB 87 DC 2D D8 2D 26 EE 0F FA 0D 67 F0
 89 43 F8 EF FD 90 0F 7A F8 A2 D2 82 ED 41 3B E5
 6E 7F 91 DA C0 48 88 D6 16 BC BB 3E A9 28 31 21
 30 6C 50 6D 0E 4B A8 61 FA D8 09 29 75 DE 83 FA
 2A 2E E8 E9 BE 78 15 FB 02 53 F6 A2 E5 4B 86 79
 A2 AD B0 F4 F5 EF 0A C1 52 01 CD 85 B5 3C 90 92
 31 1D 52 FC 0C D7 27 6B 27 16 30 32 B6 63 96 6B
 2C 32 66 1D 2F 1A 17 C9 89 EA D8 C4 97 A1 BD 4A
 50 AC FD 06 09 17 E5 BF B1 98 4C 90 91 3B FC C3
 1C C2 51 ED CB 12 81 E9 04 34 9D 18 38 2E 45 9C
 6F 4F 06 9D 72 E6 78 02 4F B9 76 76 D9 0B D3 F3
 C5 95 FE 67 41 31 58 75 9C 4A 0C 2B 29 75 57 59
 84 09 04 95 00 59 32 7D 68 88 24 A4 5C 55 8E 04
 C1 4D 5C C8 3C C1 64 0B D2 96 83 71 F0 55 A9 3F
 37 CB B4 6A FC EC 3B EE 41 2D 0B D0 43 63 FD AF
 12 B5 DF DD F7 03 D0 8C 69 77 3D 0B CE 17 70 FD
 F6 14 92 7C 2E 95 86 BC 2C 4F D2 71 24 C7 65 3A
 34 76 BE F2 89 0A DC E1 21 45 99 8E 6C 4F AC 3B
 B3 35 52 0C E3 B2 48 20 41 15 5B 93 70 9A EC 00
 8D CD 3E 85 12 24 64 DD F2 51 1F 10 30 88 E0 1B
 66 59 F9 B1 69 28 E0 05 99 71 F3 81 BF AB C8 F3
 B8 9E 9D 65 3F 97 C5 DF 73 46 0B 03 70 4E A7 19
 83 73 50 75 72 37 C7 77 AD FF 7B 93 E1 FA 05 AA
 84 D1 F9 FD 29 2B F6 FE DD 85 21 99 BA B0 43 6F
 7C 9C 12 BB D7 D7 5F 6A 9A 34 BF 41 78 F4 26 0D
 71 BE A9 A4 EE 27 1C FA 61 AB B6 7F DA 40 10 21
 66 32 73 82 AE 85 D9 93 41 3D 19 C9 3A 30 D0 8F
 0A 78 16 8D 8A BA 3C C5 70 F8 F2 A5 0B DA 6A AB
 CF 18 AB 03 1B 1F 59 69 4E 16 C2 9D E6 B0 FC EA
 6F C6 06 E0 93 54 FC C2 9A F3 26 72 CD 92 38 9D
 75 52 81 FD 87 EE ED 3B FF 3F 56 27 97 9D F7 EF
 31 42 54 9B BC E6 5C BE 7F 99 6B D1 1A DB F2 B7
 6D 1C 27 24 AE 81 35 AF 8E A0 2A 6A CC 2A 4F FA
 C9 6C 20 4D 9D 43 65 4F 05 B4 51 F6 55 82 37 F8
 23 AA 77 89 9C E7 35 9A B8 82 90 D1 93 6E E1 CD
 1A CA 4E 04 CA CD 76 3A CE 2E 61 65 7C B7 E1 DC
 FA 37 41 AB 8B 05 85 B0 26 E5 04 FF 12 00 4F 64
 E9 13 F1 C1 0D 0F 27 31 CB 35 92 3E 37 73 93 A5
 4A 2A 98 D3 A4 A1 4C E2 BE 9A D1 02 84 1A CF 01
 22 67 83 F1 5D 41 A0 50 EA 07 82 C3 75 B4 07 5E
 AE 1E 9F 80 B4 D7 D8 F7 DC C6 19 D9 B6 D4 09 DD
 6E EF 01 C4 9B 52 A7 54 A6 D6 5C 99 2D 9B 46 AA
 F2 8D 3C A7 64 61 A5 C9 1A B5 D0 58 1F A9 A2 F1
 EC 63 97 F0 06 80 BF 02 C0 9F 18 CE D2 D3 12 0F
 62 BC 91 0A 53 BE EE 4D 00 CA 42 A5 7B FC E1 36
 F8 C3 02 08 BA 8A 98 3A 8F 35 9A 3D 50 10 F1 D1
 55 F7 BE C5 A2 4B 93 D3 89 AD 1E 13 E3 70 5A 4E
 3C A8 9B AA 3F 30 7E A9 99 24 AF F3 45 E7 40 97
 DC 25 CD 01 E1 DC B9 D7 D6 47 E2 DE 28 E5 FB C8
 98 87 BF 24 E4 A7 58 C5 C0 A3 22 7F 8B 03 89 9F
 2F 17 D7 D9 B5 F1 C7 DE 26 1D 96 DF 4A CC 69 83
 2F 01 CB 4D BB 9E 7B 9E 3D 0A 41 A8 A6 21 7F 8E
 73 5F B1 CA EC 11 86 E9 6C 87 22 D4 15 21 1C C1
 AA 9E E3 20 B1 F9 5A 6D A3 0B DE 80 18 27 2E 39
 7F 32 32 5E B8 97 E6 8F 02 46 B0 2D 1B BE 57 5B
 E2 68 42 76 AC D5 B9 B7 E5 D0 34 C4 6A 2E BF 8F
 80 F1 AD FB D8 EB 05 B4 18 B7 DC F9 98 97 D7 99
 9C 82 5F 5D F4 31 93 1F EE 09 6B 75 5D 82 0C 20
 90 0D F8 17 A6 A9 EF AA 98 A8 FC 36 B7 88 E5 1C
 0E 9C 81 01 57 AE A5 2B AD F5 E7 79 47 6F FC F9
 8A 50 4B D6 DC F4 03 ED 6F 20 60 A3 98 91 87 3C
 F3 3B AF 74 64 F0 D4 EA 64 C0 D4 2D E2 19 B4 51
 4E 86 94 23 48 E3 2A 5D 7B 01 FB D2 00 A3 D4 29
 EB AC A0 47 55 E7 3D C4 8D 92 45 29 54 C4 02 33
 AD 4C 8A E2 E8 36 72 B5 EB 12 95 A3 A2 7E 42 9F
 6A 5C 73 79 44 C7 04 80 59 B1 EC 2E 79 66 61 CD
 C4 51 86 0B E1 D8 83 7D 0D D3 D8 0D F6 47 E6 6B
 78 49 06 52 6C FE 94 9D A5 05 15 D6 1B A6 67 A3
 CD D9 03 77 A3 38 1C 00 60 62 07 D1 A8 A5 35 C0
 3B A8 11 A5 E6 3F FC 2E 71 C3 CE 4C D5 1B C7 42
 A7 E6 07 A6 C6 17 A1 A4 EC 98 1D 3F 70 7A 28 EE
 0B 1C 03 16 0C C2 E5 5B A6 B4 A7 B2 50 4F 24 08
 8B 87 B5 6A 1E 9B B6 43 AA 7C A5 AD 05 DA 14 40
 26 AD C9 62 C3 7D 55 6F A0 FC E0 48 D5 AD 6A 91
 2D 12 B7 BD 08 A8 23 18 21 9D 19 DB 00 E7 2B D5
 C0 81 A5 94 A7 55 59 7C 86 24 4B 75 F9 B9 46 2D
 5F F2 BF 03 1B 4C D1 19 3D F3 37 A2 7A 87 B6 DD
 6C 01 20 0D 43 65 20 FB BB 27 BD 3A 9A 35 DE B8
 7A AA BA 3A F1 8D 86 03 97 E8 2E 5C FC DB E0 3D
 95 76 B0 DF 38 F8 C3 56 90 53 4C F1 E4 AE 6B 17
 CD 58 BC B8 C9 E1 F7 04 63 60 9F 82 EB F6 25 63
 6E 4E CD 0F 02 AF BD FB 3C 82 8D 96 CB 49 C5 14
 21 4B 16 5C D6 DD 6A F9 F0 43 64 FB 25 A2 4B A6
 0C 1C FF 42 BD 83 27 50 60 DF 0B FD 82 F6 3B 62
 3A 80 B1 AD 5A 49 CA 88 79 5C 31 83 98 9A 63 FD
 68 26 0D 88 26 D0 BD 3C 0A CD D3 D8 9D 5F 4C 5E
 CC 44 D2 5E BF 59 E5 74 59 5A 94 B7 FF A7 AC D3
 15 DC 00 D6 D2 F0 D2 29 A3 25 77 F9 ED 30 1E 17
 53 14 16 43 56 AB 74 B4 DD D0 CE E8 41 A9 A8 35
 0A 2E 87 FA 91 EA F9 E5 D2 DE FA 56 17 C4 75 FB
 20 5C B8 0A 3D 25 78 3D EF 7B C0 95 B4 CD DF 95
 27 BA EC 72 CF D5 63 43 33 23 59 AA FF 81 8C C3
 38 95 AB FB 22 41 80 B0 48 9B 97 C1 6B 51 83 D6
 AC C6 66 DA E5 A9 A0 89 37 8E D5 CE 8C A7 9F 3E
 16 AD 83 01 4E F2 91 01 94 57 1C FA 4F 40 FA AA
 9E 8A 2F CB AA E6 B7 1A 1F 85 C2 14 CF D6 95 FC
 52 BF 87 6D EB 4E 97 FA C1 2C 7C F6 CF 0C 22 47
 5F 43 80 79 0B B3 53 9B A5 05 A8 5B 30 FA F4 42
 0A 8D F5 48 61 3F EE 37 33 56 33 72 B1 09 42 99
 1A AE A4 5D AC B7 CB 28 C6 DE 1E A8 CC 30 6B ED
 FB A3 80 F8 60 74 C8 55 C4 18 BD 32 95 1C 15 E0
 65 73 56 77 E9 36 47 B7 CC 45 8F 37 32 6C EE C5
 8E 53 8B 2D D6 B8 74 C8 39 7A DF 22 DE 1C 46 29
 4E 24 E8 29 D4 77 FC E3 D8 F8 D7 1C A8 C8 F0 7F
 C2 57 EA EB 0F D1 87 3C DB 91 F5 C2 D0 F3 24 21
 86 5A B5 99 49 2D BA 2A B7 7E 5B BB E7 83 A0 71
 69 8B CC 95 32 BF 67 75 EF 48 9C F7 C1 D8 B0 25
 1F 24 B0 C4 C2 99 2B C7 E0 AD 7A 64 05 F1 99 84
 37 42 9F 02 7E 5F 03 2E 06 C8 97 17 92 59 DA AB
 B5 F0 8D 9F 58 C9 DE 78 7C 6C B4 FE 54 5B 26 C8
 FD 1A FD 43 1F 19 E5 CC 41 56 75 C5 A6 58 3B 5F
 62 FB 05 73 CA 25 BE 84 8E 18 C8 7B C3 45 7D 15
 EE 93 BE F6 FA 12 32 00 A2 A0 EA DC E8 0F FE E4
 F8 E9 B1 2C C5 62 F0 AD 33 FB CE 7C CA F7 B1 0A
 59 6D 93 57 57 9F 44 71 B3 1B AE 8F 1B B5 57 17
 00 D0 14 7D DB 4D 6E 09 62 16 FA B9 B3 2B F4 90
 77 D6 AD C5 EA A0 A0 F9 75 1A 50 9A 1A D8 20 29
 92 24 2C 28 0F 02 DE 50 5D 9D D4 53 7C C6 35 9D
 44 69 CF E7 57 3F 73 E5 78 3B FC 4F E9 4A 97 0E
 07 66 F5 92 83 B7 7C 19 8B 54 A3 75 15 8E 07 3B
 13 7B 2F 22 12 DD DB BA DF 55 85 E5 C7 C0 BD AE
 5F 48 2C A9 0E B3 46 E1 09 76 40 5C 92 BD E4 66
 B8 5F 4F B1 F8 47 12 B7 93 1D 33 8F 7D 68 0E A6
 0C E1 37 9E 75 15 31 A0 3D 44 78 75 F0 27 74 41
 E3 93 34 7A 0A BD E1 FD 53 E1 BD 6D 67 07 20 BF
 ED 56 02 31 A8 3E 8D 3A 79 66 C8 98 CE 91 68 15
 F0 33 1D 6E B5 7F 65 84 BF 73 B0 C8 BC 77 8C C3
 05 B6 86 55 96 EB 98 58 0D 0E 6F 68 DD 50 26 29
 1A B5 06 29 B6 5A 43 1E F2 1A 2F CD D4 84 A8 AE
 22 E3 AA 36 5C 20 A8 A8 3A 72 97 DF 54 CF 44 EC
 2B 24 B8 05 81 94 33 33 72 B8 AC 82 A6 F3 97 68
 8D 7F 76 DB 23 E5 B6 A8 8C EB 9D 5B FF 71 EA DD
 69 2C AB DD 82 63 43 78 9B 3E E2 A7 75 E1 18 58
 0A 69 5C 1E 17 AA 6F 82 09 8A 56 BD D3 0D 41 80
 F5 56 D8 F5 AA E5 82 AA C7 18 28 D5 86 99 4C AA
 33 B9 23 51 6B AA 4D C0 A1 16 05 B9 28 72 FE 4D
 73 6F A0 02 A1 B9 DD 10 2D EC 4B 33 11 A5 48 52
 CE A4 1C 4B 3B B0 64 F7 63 66 2E 72 E5 EA 69 AB
 B1 14 8F 9D AF 7C BF 7B 39 DB A1 50 29 2A D7 E8
 73 DC 62 81 4A DB F1 BF D7 81 F6 B4 0D 20 A2 D8
 11 B8 C5 52 F8 56 75 BC CF 72 B5 37 3A 9F 4F 17
 CB BA 05 4B 98 E9 24 F8 DB 21 EB C2 D5 E3 2E 29
 4D 9C B3 62 78 28 8F 1F 8A DB 24 8E 40 11 DC 00
 06 BE 2D 4D 07 8A F3 55 E2 59 49 9B 49 CA 77 70
 53 AE BE EA 52 1E 3B E7 59 35 7D 14 CE FD 05 0A
 F5 B7 E3 ED 36 6B 07 48 79 54 1D CF 29 EB 1F 83
 58 A4 EE D7 62 D8 E3 D7 97 68 5F 86 E8 BB 57 9C
 9E B2 1E 2E 25 92 05 15 35 6C 8F BE 3D 79 1D 99
 7D D9 C9 85 A2 53 8A 45 05 DF 7E 7C C6 F1 39 D2
 92 45 9A 3B 41 37 95 F8 7E F5 D2 EE 00 57 D2 AC
 37 9C 47 1C D7 E1 06 62 CB 75 14 C7 56 84 75 A8
 CC F0 2D 09 EC 04 B0 AF E3 26 B0 A2 EE 5D B7 D3
 7A 9E A3 57 1C CA CF 18 71 5D 97 92 54 BD C2 3D
 F7 42 AF FC 13 AB A6 10 3E 58 68 EA EE F0 2D B5
 FC 71 7E A2 FC 4C C0 A4 85 A9 91 71 60 F8 8E 2C
 A2 1F 5C 7C 7A 7F 3A 42 EA 98 2C EE 1C 11 1F A7
 7A 4F 0C B0 D7 32 90 FB CC E7 8B E5 2B 9D F7 F8
 39 23 C1 22 56 02 8B 65 73 6A B3 9F F1 64 F5 15
 32 2C 8E 55 9C 78 84 70 D5 51 20 92 F0 04 40 A8
 B3 5F 47 F7 40 74 8A 2A 92 42 0B 0C 33 95 8A 68
 F2 EF 09 F8 8C 16 EE F4 39 8F E0 E6 0E 95 3A 6E
 89 26 9F B4 0E D6 78 C9 7D E5 49 E4 2D BB D3 82
 FD 20 75 B2 DC 8E E8 AF FC 65 F5 60 1A BE 17 C9
 C0 35 98 4D E2 0F 05 A0 F9 BC 6C 40 E3 9D 5E BA
 49 8E 66 06 6F 32 FD 18 19 02 4A AC 52 07 1E 77
 88 09 E2 FC 98 EB 13 12 CE 94 A2 90 22 F5 98 CB
 06 DC 5E 53 C7 E5 DD 40 87 71 B8 ED E0 38 49 A8
 AF 3E 1B 93 30 8A 44 06 7B B0 02 38 4E EE 73 8D
 D2 A7 97 16 7D BC 7D 83 B1 9A 4F 18 58 90 F4 A8
 0E 95 48 AD C0 DD 98 FE 16 3B DF D9 FB 72 B4 E2
 80 6A 9F C7 BC A5 80 1C 66 BF EC 6B 1B 31 F5 B3
 5C AE 38 7B F7 E2 1B 8A C9 1E 70 0A 9F 1E D1 EB
 DE 62 8D C8 8B A1 12 5F E4 8B D6 B2 70 8A F6 F2
 F6 B8 B6 2A F7 D2 F6 27 E2 86 98 06 AA 0F 1F 44
 53 8F DC 6F 7D 24 2C 2A FC 2F 25 B1 43 87 75 3A
 89 3C 86 B1 E2 C7 6F D1 A1 22 B1 A1 25 72 03 30
 B5 8C 3F 21 B9 0D E6 D4 DE 65 07 DD 75 74 41 BB
 5B A6 CB AA 25 80 7B 11 8B C4 E5 03 E6 0D 01 82
 A5 CA 2D 07 11 25 2A C6 5A 23 05 BD 21 D3 40 54
 B3 0F C9 CA 7A 0B 8E FE E6 16 B1 DC B4 32 76 F3
 C0 88 D3 61 B4 A0 67 F2 94 48 BD 37 78 F9 81 9A
 A3 08 73 1D 33 5A 22 02 DE 25 43 65 16 14 74 C1
 51 2C 5A B0 70 AA DD B9 E6 F7 F6 C8 C5 E5 16 59
 FC 22 25 7B 3D 67 C3 02 0A 14 73 74 AE 6A 33 32
 4D F5 35 2A 99 03 DF ED 6D 6C 73 3D B8 7B F6 97
 B0 BE A2 90 83 41 EB 41 EF 4F 00 2C E3 1C C5 0E
 C2 7D 54 A0 5C BE F9 12 60 80 76 4F 59 B7 5B D0
 2C AC 34 95 53 96 11 45 42 3C DB F1 52 C6 A0 E0
 6E 87 5B 49 56 F7 8D 4E 59 1D 92 86 BF 3A 5B 8D
 30 94 F1 60 11 3D 27 06 BD E1 1E 73 45 0B E6 2A
 01 B1 CD 81 91 75 07 3A 01 DB BF C3 00 02 A5 DB
 0C EC 39 FB B1 56 DB 67 0F 42 DE E8 39 07 1E 02
 37 A1 CB 75 C6 64 3B DF 18 A3 7B D3 52 A5 83 3C
* End 353363290 3029480527