* LTspice Encrypted File
* 
* This encrypted file has been supplied by a 3rd
* party vendor that does not wish to publicize
* the technology used to implement this library.
* 
* Permission is granted to use this file for
* simulations but not to reverse engineer its
* contents.
* 
* Begin:
 51 BA C7 44 3B 2B 2F 7B E3 56 13 7E 90 92 92 30
 33 80 F2 14 52 19 B5 62 85 BA 61 9B 16 29 77 62
 4B 15 74 92 BA 9E 35 9B 3B C7 95 BA FF 2C 41 1A
 B0 41 77 68 25 8C 4A 11 4D 77 82 6A 85 3E 5C CE
 B5 32 5E D0 52 83 26 76 E5 B6 EB DE 8D 64 36 C0
 75 FC 5D 3F AE 90 CA 5E B0 06 E6 00 EE F8 E0 3A
 BE 55 5B BF 2B A7 F4 0C 4D BE 93 83 85 A6 EF 08
 0A 5A 25 D7 23 B3 C5 D6 2C 32 27 6B 81 CE 04 66
 48 7B 93 AF E2 9E 1B 76 73 59 28 CD 26 7D 3F B0
 26 D7 C0 F3 8B E1 7B C9 98 4D A0 C5 23 48 17 62
 E1 CC 99 CB 15 F5 C4 67 D7 99 D6 29 81 C2 D1 23
 70 D0 5B EC 4E 19 71 D2 22 FB 5D 65 CD 99 C7 59
 E7 DE F7 44 A6 9F DC 26 E7 BB 33 61 EC 36 6D D2
 12 2C CB 24 54 CC 9F B5 E6 9A 6C 84 CB 3B 48 31
 FE 71 87 81 1C 9E 67 8D 7C 1D 40 04 7C 4B 0F 8E
 4F B3 3D 8C 05 D5 68 67 05 53 DB E9 FA 8B 63 79
 19 ED FB B1 2D 76 AF 80 0E 7B C5 A6 B8 0C D9 10
 A4 79 48 FB 3A 10 87 EF 9E 58 D3 7C 92 95 44 FD
 B9 AB 75 F1 B0 9F 3A CA 44 02 EC 3B 03 CB 16 89
 60 78 50 5F 6C A8 33 1F B1 25 12 62 B0 E4 EF 9C
 2C 21 68 9B 85 11 F2 0E 20 4E D0 AF E7 1E 0F B9
 F8 21 26 5C 75 B7 4E BD 97 9A B3 92 79 31 EF 09
 5E 5B C4 9E 5D 6C 71 3D CB A6 40 28 F0 87 CC 67
 F6 17 9D 82 3B 3D 3A B8 C3 5E FF 21 EF 8D 1C F9
 D6 FC 18 64 AE 7B 54 B0 CC 4D 0D CE 4B 99 01 BA
 4D CF BF F6 47 E9 1C 7C 05 EB F7 1A 31 08 4F 9F
 65 07 D5 FF 78 4B 79 56 43 45 1E 55 D2 EC F2 F8
 E3 61 E5 B8 97 D8 91 15 94 D3 72 17 CD FA AA 53
 1C A0 05 E8 B4 11 FB C6 E2 5F FF CE 40 94 3E 98
 1C 53 4D D1 AE 4C BA C1 9A 7B 45 33 27 8C 1D DF
 C7 3E 44 16 B2 EB FD 66 25 95 01 6B 05 F1 6F 4C
 5D F2 1E C3 3C AC 58 6A 3E 90 AE CB CC E4 03 16
 26 E9 2B B3 1B BA 7A BB 8B 78 92 B9 48 9D 00 F4
 ED B2 B6 30 9B 48 79 8A BE 46 16 8A E9 AF 7E 1C
 B4 F3 B1 FF D5 62 13 D5 A2 5A 4B 8D 71 A7 88 8C
 91 FD BC D3 4D 45 5E 09 27 B6 AD 9D 74 2A 8F 3E
 96 D2 B0 EE DB 61 33 25 F6 CC 4A 58 17 5F 4D 49
 25 98 CA F1 4F C9 82 3A AA 3D 18 21 F5 EF 94 7D
 1C B6 01 6A EF AD 10 3F 2F 14 B6 90 0C BF CB 80
 38 4C 57 84 E8 0D 11 76 B1 1C D9 83 99 B3 A9 03
 1C 6F 86 0A 17 56 E9 8B 00 9E 1A 0D AD A1 83 5F
 51 7D 87 65 0B 54 0A 2C 22 5B 10 8F 5D 4C 2E 24
 F2 79 72 63 57 64 D7 1D 60 C3 AB 02 4C 50 85 66
 38 39 97 4C 1E 72 9B B5 42 1A F8 0B 70 13 EE 8C
 A7 04 D3 78 F3 1F B6 0A 2D 0B 85 88 C0 DE 9C B2
 03 9F 26 98 33 06 B0 BB 5D B9 6A C2 D4 3D 51 E3
 26 69 97 4E B5 8C 79 61 A0 B4 27 C8 E6 E4 81 76
 E0 95 00 A4 00 66 CF 45 0A B2 0E 70 44 68 6C B3
 45 CE 82 28 C8 5D 6C C9 DF EB D9 0A 8D 3E 8F 7A
 46 89 8E 4C 62 BB F5 05 2F E4 D8 D0 42 1A DB 4A
 3E A0 1B 79 DC 70 60 60 51 9C A1 0D 1E C8 5E 47
 8D 57 7C AD C2 99 79 95 B0 D5 7E 97 C1 A7 97 55
 EE D4 6A 5C 23 6F F1 73 0F 29 06 AF 22 87 81 56
 D8 40 9A 3B CB 10 6C CD BA 0C D0 0D 13 AF 19 20
 F9 23 33 DF 23 F1 EA 53 6D 3B 47 0F 0F FB 5B 08
 77 47 69 C4 9B D1 DB 7F 5B 02 E9 68 D6 B9 34 74
 07 25 13 DE 8A D1 22 B2 D7 20 94 C8 B1 49 FE C0
 F2 06 CA F0 66 B2 43 AC 77 80 02 A2 A5 C4 1A 2C
 EF F9 A2 A7 14 82 39 34 45 6B 08 4A 01 C8 3D DA
 BD 49 16 E2 48 C8 76 6A 0B 83 34 1B 2C DE 19 6F
 00 DA B3 18 3A 6D 62 50 1A 62 26 FF AB 76 80 F9
 36 4D 3C 32 2A 9B BD A2 02 FF E7 68 3D 70 B5 8A
 02 5E 0B FB B7 58 84 63 AB 12 A9 71 3A B8 BA C4
 48 04 E1 E9 48 12 C3 E3 CA FC 8D F2 B9 F2 4B 7A
 C0 9B 92 53 E8 1C F7 CD 97 F5 E4 8A D2 01 67 A9
 8E 25 D0 C5 7E A9 11 26 18 02 BC 85 A6 F4 16 6C
 6D 7C 10 97 B9 63 56 CD 0F D2 BE C6 E9 45 C0 F7
 B3 3D BA 26 26 01 2B 84 08 3C E5 D5 53 46 30 C6
 3C 69 A9 31 DC 4E 49 91 2D C9 B0 76 B2 30 79 BC
 E8 E4 E2 C8 20 43 AA 32 08 7F 49 81 53 DF 45 2E
 91 9E A5 6D C5 A4 F8 03 61 74 89 D0 93 00 0B 27
 DF A2 0D 41 D1 B4 98 7A 74 4F 0C F1 92 0B 6F 94
 4E D6 42 4E B5 23 94 9F 6C 73 7D 83 61 6B F1 BC
 EF AD F8 8C 84 2D F2 C3 24 9B AC EA 23 C2 77 1B
 DF EB 54 AE A7 DF DA 7C F4 37 9A 48 50 05 FD 80
 82 29 26 3E DB 78 DE 50 FD 0D 6B 9A 1B A3 59 0A
 59 A6 54 09 5B A0 9B 53 63 6D 98 AF B2 DE EF C6
 27 58 46 72 D9 F5 28 6A 37 FE 71 48 12 26 05 52
 5A 71 BB 89 B6 19 6D D0 D3 CB B4 55 D7 CB 04 B0
 34 77 19 8B 6C C1 E9 73 24 C1 85 B2 3A AB E3 03
 44 92 D4 85 6E 11 17 E0 D7 5D C5 D2 B4 22 8D D1
 67 38 F2 74 3B 49 98 12 C7 FA EA 6F 1F 18 4D 8A
 8F 0E 9C 5A 3B 24 FE A3 69 AE 8B B9 CF 00 6D DF
 01 62 C3 CB 88 5E F1 35 33 3B D8 24 12 06 69 AA
 90 DB 3F 6D 8D 6F 13 AD 1B 00 69 75 6F F6 84 EF
 76 24 F7 91 C4 4B 04 5F 89 14 2D 48 B3 14 22 3A
 D8 54 98 45 A8 F5 02 1D C9 45 1D FF D8 BA 17 6D
 70 99 BD 39 84 F6 E2 E7 93 84 8F 04 14 08 67 78
 91 45 22 C0 74 09 D0 B6 C9 EF 64 92 D5 78 91 7F
 83 C0 F7 25 32 8B 48 32 11 B6 74 5E A1 30 1A 7C
 DB E5 2A DB ED 76 C8 3C 48 D7 D9 11 2F A2 E4 2D
 62 B1 20 A2 66 B5 85 0B 6D 1F 2B D3 B1 67 8C B6
 ED 1C BF 89 67 88 39 29 A3 27 71 34 31 FB CF 4C
 7F 0D 42 1F C0 A3 A1 5E 01 99 73 1B 36 48 F7 FF
 EA 87 62 7C 05 B9 F0 E0 6D 78 46 61 07 5B 55 36
 75 7E 42 44 4F 7D 09 97 EF 42 6A 17 FD 0B A5 D9
 97 0F 5F D5 D5 03 DF 04 C4 BF BC 34 28 8D B7 5A
 CA EC 68 27 D7 B4 8A 1C 30 BF 6F 2F 54 9B 99 1D
 F0 7F 42 B6 FC B2 07 97 42 2D 4D 61 31 9D 32 49
 D5 64 06 1B 71 F7 98 73 0A 9F 14 83 08 4A 28 34
 D0 29 D0 60 AD 1D 8E 2C 2B F8 2F A9 62 E8 55 8D
 65 E2 27 DD 2A 4D BC 76 E7 7C 66 23 F6 7C C1 76
 E7 34 DB 26 48 77 B4 AF 02 53 6F 35 B8 A9 33 4D
 82 40 A6 10 AD 3A FE 87 81 F5 67 5E E5 D2 FA 7A
 6C 30 5F ED E1 16 B2 C9 0D 88 88 EE 77 E0 0E A8
 F1 F1 DE 88 90 54 A1 B1 37 CF 8E CF E1 7F 42 11
 61 F3 01 AD EF DA 8F 9F D6 A6 31 95 78 75 3C D4
 EF 87 84 72 0F 08 39 F9 0E 87 A9 60 A5 5F 97 66
 D1 B7 A5 2A 21 C4 AD 2C 03 1F 75 83 26 79 C0 43
 0B 82 D0 5D 7C 10 67 53 10 0D 40 E6 BF 1F 40 37
 EE 51 EE 7E D2 A4 72 EC 68 F2 99 30 23 68 B2 BA
 F6 FD 79 21 44 6B 9C 2F 9E 41 D1 7C A2 BF AB CA
 65 9E 7F 5C B2 7F 5E 7F AA B2 EF 07 DC C6 FC DF
 8A 4E D7 DE DD 3C CC 19 92 7D E5 F3 63 2B 83 15
 9B 7A 71 AC EC 80 B1 71 03 65 2C 42 9B BB 2C 86
 5E DA BD 40 FF A5 B1 D0 98 A0 57 5B 9C 97 83 38
 A3 1A AF 79 35 36 8E F1 C8 ED 9D 3C AE 15 94 81
 04 1B 1A 47 9D BE BA E8 8C F1 F1 D7 E2 F3 FE 62
 AA A2 10 42 00 47 B8 73 4D 79 F1 47 33 5C E5 0A
 9D 88 D0 CF FD 67 09 3C 65 C7 C0 5D 0C 8E DC AD
 ED 4A DE 40 1C AF 8D E5 43 58 92 F4 4D C6 38 A6
 FE ED 04 2B 02 7F 89 9F 4C AA 78 96 50 76 02 7A
 F7 86 40 49 42 F5 07 DF E4 B6 92 59 89 F1 B8 AB
 45 00 C3 37 19 87 85 7C A1 7B 21 FB CD BC 6A 6E
 91 07 83 7D 69 09 EC FD 98 CA 9D 20 57 24 E5 25
 87 29 A5 E3 E9 91 91 0C 7A 03 79 F2 BF BE A6 53
 4C 94 CD 86 BF F7 DE 0B 13 22 62 2E 68 E2 CC AE
 6E C9 7A A8 6A 30 83 7C C5 FD C4 23 19 50 CA 77
 53 09 AC 4E 0D BB 1B FD E0 AF D0 AE 21 92 BB 72
 B4 1B 7F BD EC 99 B6 0F EC 6C DC 0A C6 F7 20 BF
 47 3C 00 9A 0F 24 4A 1F 77 5A AB D9 6C 9B 53 13
 2F D8 B6 D9 F5 CB AE F8 CC 25 F1 6B 3E 49 8D 46
 47 7F E7 F8 44 3C D1 03 B6 57 0F 46 28 9B 7D 11
 50 3C FD DF E9 48 DF 94 88 EE EA 72 26 10 B3 E7
 6F DA 00 0E D6 99 E6 95 64 4E 09 F5 CF 09 75 91
 06 2C 50 1C 08 C7 28 60 0C 02 1A 86 81 24 FB 0C
 2D 0C CA 1C ED F0 53 25 7A D6 74 5D C4 4C 54 40
 C7 EF 1C 45 E7 7D C4 7D 3F A1 CC FC 9C F7 E9 91
 B8 29 AB 4F 45 E0 ED AE 44 FC 00 34 33 F9 E8 17
 C7 A7 46 CE F6 F4 C6 94 32 2B 8C 52 6C E1 70 7C
 C6 91 30 4A AC 7D 9B 16 15 38 5C B9 22 49 B3 C7
 8A 19 48 4B FC CB 1B EC 65 59 CE 8D 74 5F D7 FF
 DD D4 4E FB 7E 6B C1 9C C4 53 38 80 6A C1 68 CB
 5C 86 AE DF E8 55 05 C5 13 8F 1D E5 44 02 C2 32
 FC 8C A3 0D CB 6B 5A 10 F7 62 EC 9B A2 AC F2 86
 2B 66 90 17 A9 02 52 82 FD 48 3F 53 CE 83 91 7E
 AF 99 9B BF 6C 21 52 AA C3 7A F3 D4 9A 63 E6 76
 06 8D A8 41 67 66 0F 34 FD D9 FD 21 54 1A 42 0C
 AE 53 04 2D 57 7D 2C B3 CB 14 7A 18 91 82 12 7D
 DD 1C 88 E4 EE 65 F2 B5 7F C1 D1 F3 6A 69 B9 46
 CC E1 4E A1 CF 4B F6 C4 72 26 05 77 FC 15 49 7C
 E8 84 71 51 CF 4E EC BB 82 B2 A9 A9 79 B1 73 10
 E9 92 F5 85 5C E6 46 7A 22 4C 6D F1 3A 2A 4D 19
 22 D6 76 98 3D BF 49 00 1D 91 9A 4F 35 B2 BD A3
 2E 03 D4 E0 68 C0 68 EF 6E 28 C7 6F 2D 0D 75 99
 53 E1 CD 9E 7E 36 4C 0E 61 23 43 13 C1 5E 66 69
 C6 6D 98 09 AF 22 49 8F C0 B7 05 A0 7F 72 AF 49
 08 7A F4 F7 78 03 7A 6D 26 98 EF 20 9A 20 80 9B
 9A 25 E1 8E 39 17 D4 76 89 2C 04 17 16 EB 13 D8
 52 71 0E 40 D0 F1 07 91 63 02 AC 7C 99 E5 1C 43
 A7 09 BC 52 09 57 93 34 E3 03 8A E2 B6 AE B1 D2
 19 01 F5 34 4D 97 6D 5D E8 F2 06 5B 95 44 D3 4C
 55 52 C1 3F 07 3F 7C 4D EE F2 CF 36 41 5C 1D 76
 B4 81 5E A3 EB 9A 19 03 B3 5E 8B 06 A6 22 47 23
 BE 1B 0F 0A EA 10 39 7F 8D CA 58 F5 D2 48 EC 97
 16 88 05 7D A9 D2 18 AF DF 74 1E 06 9A 74 C9 4B
 8C FC DE E3 9B 57 5B 84 8A 5E 99 C4 30 D3 B1 9D
 2F 25 9E 90 0A B9 3D 5C DB A3 00 CD D9 FA 95 67
 B1 7F 63 0A ED FC F4 36 C8 A2 60 4E AD 64 CC FC
 0D 66 43 CE 3D B3 23 81 30 09 D2 9B 7A 1D 70 5B
 5F 0D 42 B5 69 22 5C 09 09 90 18 94 C8 8B 12 60
 5C E9 50 0F 50 CE F7 BD EB 97 1B 4C 75 1C 1F 84
 9D 7C 44 98 86 B7 05 CC 66 87 65 F6 B0 CF 29 69
 01 8A CF FD A2 E0 4F 33 C1 E7 D1 0A EB C8 59 E6
 F8 76 53 21 BF 5D 43 16 CA B0 7E 50 A7 A5 6D 12
 9A A0 5C 10 4A 11 02 AB 12 BF 12 97 FE 4E 41 6D
 9D 3D 11 B6 61 17 40 0D 91 25 81 46 F1 D2 94 8F
 FF 00 25 2B FA 1F 3B 17 3F 8C 25 51 21 4E A9 BC
 86 B7 03 D3 DB 3F AA 27 FE 3E 74 50 B0 62 50 38
 02 86 3E 7C 08 12 9B E3 E8 BE 8C 9C F5 C0 7A F6
 F4 AB 45 12 8E C4 FE 6D AD D1 8F F3 7E 98 8E D5
 82 32 C4 36 51 4A 24 7A 89 9D B1 47 F5 18 53 9C
 BF 35 9F D9 03 51 77 CE C1 54 FE B5 03 CF 60 7E
 44 21 68 DC F0 A5 0C B8 0B 01 B9 02 2E BD A1 CA
 D9 9A 1C D3 25 56 B0 10 42 06 5A 7B 0A 1C 03 89
 DE E1 C4 68 FA D1 40 69 4D 83 8F 28 B6 B6 BD 2F
 C6 C4 E2 3D 83 36 9A 6F BA C4 41 C1 FB 20 9D 86
 12 70 3A 38 D0 7C 52 A0 BA 52 70 57 F0 6D 1A F1
 79 E5 2E 9B 4A AB EB 04 4A 46 16 B7 11 44 75 90
 B0 BE 7D 0C 70 09 B1 F9 05 D0 40 27 1D 99 C8 E1
 2E 15 B1 F5 83 03 4E 05 B6 27 91 99 56 EE 15 81
 AA FE 75 46 DD 73 72 0D C3 10 D6 1E F1 2E 53 9B
 CC 54 4E D4 76 2E BD 90 C9 CB 05 27 AB 40 99 3F
 6C FE 86 F4 11 85 A3 53 D4 96 E2 92 5E 62 41 DD
 8D 84 53 B3 15 7E BF 6A 5D 0C 6D 3D 24 A7 AF 5D
 BE 89 AE 8F 87 61 9C F8 9E 90 BF 2B C8 D9 00 1D
 E7 06 8D F2 63 80 11 4A CC 7B D9 F8 8E 22 35 C1
 3A 05 39 7C 04 18 BA 58 30 B5 30 89 75 49 FB 4E
 B4 45 7F 1A EE E9 4D DB 30 4D EC 44 0B 44 75 28
 42 1C 15 84 1C 5A A3 D7 4D 0C 88 E2 C6 83 BF 6E
 09 7E 86 BF 8B 3A 3D F7 4A 65 B4 6F E6 61 50 45
 DB 9C 3B 4E DD F4 54 91 A3 01 34 47 88 3D E5 DE
 B3 B0 D9 49 36 9A F2 AE 2B AD 7E E7 88 EA 8E 44
 4E 9F 66 E7 20 98 CC 12 F1 8F 01 FA 97 72 81 DE
 DC D0 D9 61 50 90 DA E3 00 45 38 9C 98 94 8A 72
 EC 2C DC 5F 1E DE 11 98 0A A6 7B 43 D6 41 79 BC
 D1 F1 4E 7B 20 EC 45 02 85 B5 71 0E 25 7B 43 2C
 CD AF 49 F3 8D BF 83 86 39 96 5E AD F4 FE 19 80
 A5 2B 31 30 D3 64 2E 93 DC DD A0 14 74 E8 76 5D
 EA 6E 24 CC 6F 60 57 3E 18 1C F0 5A CB 9D B6 97
 41 7B 4E AF 18 4C 97 95 39 47 92 22 4C 1B 7C 06
 68 F1 61 5C 46 6F CC 8C 54 F2 05 A9 CF 22 1B C2
 53 5C 16 9E D4 CC D6 19 AA C6 71 21 E1 42 8E 69
 26 B4 AE AD 4B 5D 69 5B 7D D2 1B 0F 09 E1 5D 58
 1C 2A 78 FD 65 AC 8D 2B 40 6B 8D 25 E3 13 76 19
 46 16 BF EB F6 EF CD 1D 08 68 08 1A 29 58 09 87
 9E 8F 7F F8 A0 99 12 37 6B EC 0B DF 4D 67 B7 3F
 47 0F 24 85 3E 15 D2 88 1C 38 04 60 9C B6 C3 36
 08 48 FA 54 4C 85 05 75 2A 06 73 86 0D 49 1E 07
 54 E5 E0 E8 F3 4F EA D5 0C BE 34 64 95 B4 56 D1
 CF C8 4F E6 68 03 BE 15 9C 27 77 68 D5 38 90 75
 36 11 F4 2D 0E 07 59 61 49 8A 34 1A 7A FF 2E ED
 C5 EB EB 43 F3 B5 42 0D D1 72 AF DD 1C DD 95 A1
 E8 84 82 2C EE F3 23 D9 F9 00 80 1F 68 E3 AB 6F
 B5 B1 1B 0F 2A 47 B9 1B 9F AA A9 7B CB F8 55 91
 AF C6 18 E3 74 6E 18 3B 9F 88 11 F4 2A 93 45 95
 D0 31 85 04 70 5B 17 8C 15 D0 81 54 49 73 4E 00
 63 2F DC 86 1D 56 07 90 7F 05 A3 2F 5E 26 9D CF
 A8 08 A8 FF 51 1F E7 B9 C4 29 39 5D 8F 08 E1 C3
 E4 B5 0C AC C1 C0 4D B6 CE D9 F0 54 40 F7 9D FC
 49 13 46 F1 56 0A 29 16 1A AF 76 A6 AA 14 14 DF
 C0 E5 9F AB 75 F8 AC 55 DB A2 C0 53 D1 89 B7 98
 9D A3 7D 79 D7 26 0A D2 3D 7F 91 0C 26 E2 73 AB
 86 B8 44 F6 99 C4 8F 4C 4C 2F 76 DB 3D 84 0E 0C
 01 3E 5D D8 5B 01 E9 CF 92 3E D7 1A 86 5F F9 DA
 89 EE 4F 27 0E 42 8F 71 54 F7 D9 78 0E 40 FD BC
 18 45 94 38 0D 89 67 3C 74 F1 11 D0 86 0E 77 B9
 C6 D0 24 C8 88 46 B3 41 0A 86 4F 60 7F 89 0D 0C
 2A 93 B9 65 2D 84 BC 2C 4A 27 CC 65 49 12 39 77
 18 FB AD EE 18 2B FE 03 BF 41 42 62 F5 89 BB 30
 5F FA AF 3E 5B 26 02 0C 2A 2F F6 0A 6F 87 5C C8
 71 4A 23 E9 1B 89 6D E3 3E 7E 61 3E 70 A0 0E 76
 EB 47 5A AB EE 76 F1 DF 41 4A EF 3C 1B CB BD C9
 BB 7A 95 C8 84 F2 B5 DD ED 59 FA 3C 1C 18 A4 BE
 14 8E 9F 81 93 6C B6 E2 C4 6F 9B E8 B8 B7 66 96
 4B F3 D6 67 EF 57 E6 F4 76 B6 78 C9 5D B8 80 3A
 BA D4 AD 5D 7E BC F1 00 F6 4B FD 8A F6 A7 C0 2D
 46 B8 70 C6 F5 F2 77 A3 F2 94 99 F3 92 54 38 3C
 AF A6 AF 60 A3 86 E3 85 D7 A6 E2 44 D8 33 7C 1C
 7E 93 E5 F1 D5 78 2B 6F 30 7F 9D 48 91 33 31 64
 43 20 C9 4B 3E E5 D4 5A F4 EE 50 C2 93 4D 27 54
 58 CC 79 FA 32 8A F8 38 26 80 AA 8F 0C 33 7E 3B
 AB B9 E8 06 76 D9 99 3A C5 14 24 62 80 AB 36 06
 FF 98 8C 50 D2 AF 23 8A EB 20 89 6A F8 C8 B3 ED
 9B 1D 32 B8 C9 CD 0A C4 6E DF 22 FB 17 14 07 50
 C3 07 BF 4A 57 DA 6E 64 AD 7B 38 7E 29 0E FD 85
 E0 8B 74 97 11 E0 92 49 BE EB D5 9B B8 99 3E 85
 C5 4F 0A E4 E9 5F A3 53 5E 49 CA 06 3B 1C 6C DD
 9E 89 C6 7C 24 BD 4E 44 0F 80 F1 70 20 49 B4 B0
 B8 7D 08 E6 F3 AE 0F 3D 72 14 A2 BD 89 76 6F 00
 F3 F6 26 BE 61 09 A5 5F C8 64 88 B9 D4 41 AA 4B
 CF 10 0D 56 14 95 BD DD 59 85 CC 2A DA 50 29 47
 15 07 BA 8C EF AF 03 8F 26 45 AB CD B5 40 65 44
 F2 83 10 28 58 FF 09 3C 96 48 75 15 EB B1 00 96
 AD 05 9C 80 16 7F 74 B8 01 64 67 45 E6 38 1F 55
 69 8D FC 36 3F 87 09 B0 4F 2E 0D 76 12 A4 88 50
 CF BA 3E D5 D4 34 AB F6 9F 74 23 0F FF 3B C1 6F
 03 30 17 15 A7 36 37 68 30 C8 BF 4D DE 5F DA 9B
 69 E2 C5 9F F2 D4 1D AF 4F 50 1C CC 1B 1E 88 14
 0F C5 DA BE BE BB 52 16 85 81 5C C8 4E 3B 4F 4E
 64 D8 AA 1C 9D F8 C7 D1 5B 14 8D EB EE 9B 7A A5
 3F FE 86 3A FD DA B2 14 E7 DE DC 4E 01 57 9C A6
 79 B9 6F 5C 8C 80 DF 34 DB D7 57 81 9F DB C1 AF
 EA B2 A4 D4 19 A2 3A 55 47 4E B7 5B 91 48 0C 4E
 32 3F DF B8 22 8E 17 8B BC 78 FA 53 18 77 26 E5
 FE 8B F6 C1 A4 E0 19 E4 1F 5E D2 C7 0F 67 45 30
 9F 7C C1 B6 69 43 58 69 C1 CE 79 A4 A5 BF 6E 85
 C5 C5 AA 72 3E 7E 7A 89 92 4B 15 C0 C8 6E 68 2C
 32 E8 7B 31 AF 39 51 4A 1C FB 18 C4 80 94 42 6D
 B2 E9 1C D1 FE C5 F1 48 34 5E 6B 54 5B AF 6C BA
 8B 87 B0 A9 64 BF F0 38 04 4C 00 A1 3C 68 16 FE
 2D 8C F3 C2 5B A5 45 88 58 06 2E CC AD 6C CA 0C
 3F 17 90 B2 F3 FB 07 53 C4 63 5E CA BB 6A 2B 3C
 7A A6 BC FD 7A 30 0E 8F 27 0F 1D 02 3C 90 8D 34
 50 D0 A8 AB D4 AB FE 31 7A 08 81 58 A9 E8 4C 96
 B2 1C C6 C4 C5 18 3C 8C CF CC 9A 87 17 68 88 8F
 26 AC 90 1E 12 CB 3F BD E0 2E 56 58 C0 3B A0 F8
 BA A9 DA 44 27 25 F0 4A E6 16 4E C8 AA 1F E9 FF
 55 C6 DC E0 91 67 B1 AD 53 E9 21 4F 63 85 62 5C
 30 16 A6 C9 FD F6 50 B4 F5 E2 57 E8 70 56 B9 6A
 E3 58 47 37 FD 3B D1 C4 5F F8 1B 42 3E 53 1C 80
 55 C2 1D 11 AC 14 EF DC 4D FA 7A 59 6A 5F C3 68
 A3 75 4B 06 0E DE E5 6A E6 FA 42 E3 14 BF 3D C0
 23 27 30 00 C0 7A 0F 90 53 67 C2 E5 33 46 D0 34
 49 09 F0 FB 55 6E 18 BF 9F 9E E9 1D 34 DB 8D 72
 07 9B 84 F8 AE C1 79 CF A1 25 E3 1A 04 69 EF 74
 3C 2C 83 ED EC DC 27 4F D0 82 61 48 4C 55 C8 1C
 8F D1 02 69 73 5F 16 B3 11 6A 47 31 DC AC A0 B6
 3E B7 8C 82 5F 34 62 21 D8 B0 99 9B E2 1B C7 A0
 7C AD E6 44 AB FA 92 14 41 1F 46 C0 3E 97 67 F1
 04 31 30 5F A1 BE 50 3B 13 1B 8F 58 16 82 FF 02
 C7 C1 34 D2 07 64 51 1C 04 79 CB 88 9C BF A1 17
 56 19 03 10 54 45 01 18 DF 18 DE 4E 6F 24 6E ED
 35 57 69 73 6C B0 B8 1A C7 BB 44 8B 54 77 08 B2
 05 E2 47 7E 0D 68 49 1A 06 00 9D CD 2B 36 F0 A8
 9E 57 33 CB 55 63 78 93 A5 89 5A 3B 4D AE 9B E0
 00 7C 1A CE 4F 2D A1 9C C9 2A 38 6A FE F2 0D 10
 E3 6D 3E 7C 88 2F DC 3D 47 EA 28 4C 41 BD E5 0C
 F6 71 42 B3 E5 85 0B E9 7A 64 41 35 2B C2 9A BA
 2D 44 E7 D6 FC 7A B8 4C FF 86 6F 3E C7 70 F1 09
 2D 07 72 2F 6A 5D E3 6B C9 29 7E DA 76 7C 1E 02
 9E 29 82 5F 66 13 E9 9D C4 05 7F 40 B2 44 85 32
 E0 3D C9 38 9D 7A 93 9C DD F1 76 F4 9F 6D 56 F1
 FF 10 0D 22 60 43 06 47 C8 73 A3 38 B6 CD 94 C9
 F6 9C AA CA 69 B0 59 5F A7 E1 E0 E4 E6 B0 4E 36
 7B 82 FC CA 11 B2 91 15 C9 8C DF BB D8 0E 68 4D
 18 E6 47 33 A9 4B 6A 9F 79 3A D2 32 73 94 BE 83
 AB 56 73 7F EB 60 95 5A 00 4D D3 F4 24 04 78 56
 5B 4C 3E 23 1D 6E 73 1A 52 63 2B B8 BC 41 AE 82
 CD 74 1D FE D9 D1 03 E1 A5 12 97 51 42 6A E4 45
 AA 77 B5 34 1A 8F AC F5 93 E8 97 6C 95 08 6B 96
 2E E6 83 63 E3 4C 36 85 7F 03 12 54 6C D4 9D 6E
 B9 7A 11 21 51 6C EC F0 98 E3 01 C0 D2 04 E2 E8
 A9 0F 34 FD 19 86 2C 1B 04 AF FB B3 C2 50 09 1D
 71 B1 80 3A 6B D9 10 01 53 03 A8 EA 84 4A C0 7F
 39 35 2F 4E EE 6B 2B 8A 32 E8 29 E7 4D 4C 6F 8D
 E6 6B 22 BF A6 36 2C 2E 33 E6 E8 B5 EE 73 9A 55
 84 11 3D F8 E3 FD 19 1E C8 EB EB A8 61 04 84 0E
 9D 32 57 99 51 B5 4B 76 E2 2D 58 28 57 D5 2D E1
 7D 19 F4 62 9D B5 18 34 2D 3D 7E E6 AF FB 25 53
 4A 47 B5 D0 9D B9 82 CB B8 3D 96 DD FC 2F 29 97
 2D 92 96 76 11 5F 34 A8 B5 03 CE 5A 9B 39 7E EB
 C1 67 19 9F E9 28 CF 2C 72 BC 39 DB 1A 0C C6 A9
 72 E2 DD 9D 65 37 CC 3A E8 47 C9 27 8D E9 0F DB
 0E 4A 1C 8F 55 51 7D 86 B7 4B A6 A0 15 56 FE 1F
 F3 E7 29 16 26 BA FF 19 A3 37 96 64 03 D9 48 01
 E9 F0 9C BB 3F A5 91 6A 50 1A 8B BB D6 53 91 3C
 65 CD BD BF A9 86 B5 2A CE 6F 2A AC B5 8A B9 33
 86 A0 61 67 08 BB 67 08 8D CE BC 8C 8A D9 E2 D7
 49 7C 9D C1 3F A6 65 F2 33 F8 1D DD 6A 9A 37 0F
 10 9B A1 C0 CD D6 C1 FC 31 73 B8 BF 12 F9 47 96
 77 75 98 73 DF 8E 2D 74 D8 C9 82 DA B8 AF 9D E6
 B4 05 D7 04 C2 3C F3 38 12 72 E1 FA 44 B4 82 E6
 49 BE CE B1 12 A7 78 5B 4B BE 50 35 86 F8 3A 06
 8F 87 B0 19 06 87 4B 16 E8 2F 89 A1 77 78 2B D1
 04 7D BD A7 74 32 AF 71 BB F1 4C 2E 5B 89 32 3E
 16 36 20 44 18 FB EF 0A 98 66 CA C8 91 A0 DA 0A
 19 80 A0 2C 24 62 57 3E EB E9 AF E3 0D D0 F7 B2
 EF 31 BC 5C EA A1 C8 93 55 AB 26 87 E3 B4 B0 1F
 99 7E 10 13 22 2C C9 87 1A 1D 39 D3 01 8A 98 7C
 76 6F 6A 5D 5F 41 9E BB BB 43 32 82 DD 9F 9D 76
 46 AB 09 F8 52 53 1B 97 91 3D 30 25 CF 8F 4C DE
 1F 5A AC 5F A7 C7 86 FD 91 58 72 C8 4C 6C 6F FF
 97 08 DE 48 43 1B DA B7 F5 B1 05 D9 82 77 2E 09
 AC 32 60 E2 85 3B 1C 65 1E 44 7F 1F B9 2A DB 5A
 21 3F 94 7F 77 35 93 5A 18 02 79 05 81 2C 6D D3
 5B 0E A8 02 8D 04 DF A2 81 72 65 47 F1 8A 39 A6
 C8 1E 03 18 67 9A E0 6D 06 38 A8 28 A7 58 E0 05
 38 C3 78 9B CE B5 B2 6D 34 D5 C8 2C EE 43 38 4B
 8D 06 C7 70 62 B5 2B 57 EF 8F B0 68 F9 6A CC 2E
 FB FE 1C 90 84 AA DA 29 A9 2A C5 23 68 AA 82 DB
 08 E3 24 E5 BE 68 6C F7 3B ED 61 9A 39 56 A3 1A
 FC 96 D1 DF 8B C7 66 07 CE 54 24 E2 32 91 43 58
 5E FF 26 D6 3B 68 E7 D9 A1 A0 59 28 A0 73 C5 21
 04 96 27 68 3B 90 68 45 0A 23 D4 BF F0 D4 17 6D
 60 68 A7 01 03 FF BE CC DC 8B 05 7A C5 48 5F 57
 89 47 7B C4 8F 04 42 31 4F 82 55 5E E1 20 7D 3C
 3F 1A FC 3D 68 0F 7A B3 8A FA 89 F7 46 F8 41 BC
 4B 5F 02 F7 3B 6C 65 0E B9 73 A6 30 33 FE 3C 35
 A3 40 AA 2C 0D D1 66 61 25 EE D4 87 18 27 BD C8
 ED 5A E3 7D 20 7B BB 92 7D 61 1B C6 4B 6E BB B9
 27 FA 98 4C 19 EE BE 04 C1 27 45 BE 36 44 70 CF
 E0 5A C4 08 28 EB BA A2 61 CA 53 1A 1A B8 0D 78
 C7 13 D5 50 2A FE 3A 15 FC 5E FC 37 4C 14 1D 12
 2D F6 02 10 45 C3 3B E4 85 1D B6 1D 27 23 CC CA
 96 BA EF 16 A8 DE E9 B1 8D DD A9 C3 CD 90 50 3E
 3B 48 03 4C FE A5 1A 9B 9A 5C 59 1B 1B 84 56 F9
 7A E7 68 CC D9 D9 D0 CE 14 24 E7 8C C1 D3 29 DE
 D0 C4 DF 6F 42 A1 84 37 2E 3A 52 05 1F DC D8 55
 2E B5 DF FA 86 94 3C 8C 9A 50 A5 72 28 6E AF AF
 EF FF 24 E5 07 11 0F C1 6F D8 8E B7 D1 75 67 BF
 08 3F 27 86 12 A0 27 56 48 3F 25 D3 02 B4 3D 37
 C3 EC FF 18 09 06 6D 3E 65 05 67 C7 E2 AC 8E 8B
 A3 BF E5 56 76 5B 01 50
* End 1956357827 3092458081