* LTspice Encrypted File
* 
* This encrypted file has been supplied by a 3rd
* party vendor that does not wish to publicize
* the technology used to implement this library.
* 
* Permission is granted to use this file for
* simulations but not to reverse engineer its
* contents.
* 
* Begin:
 2B F6 46 1B 96 9A 86 AB AA 3C E0 30 F1 EF B6 BB
 1F 3D 4E 3C 3C 3B 5D 87 67 F6 23 BC 07 FE 91 F3
 E8 1E DC 5A 3E 38 A7 6C 48 96 F6 AE 4B 7D E1 AD
 FE CB D1 0F F4 8D 39 51 D8 A8 33 DF 25 DA 98 12
 8A 63 CE EA EE 3A A1 D6 6F 78 70 34 95 BB 95 E6
 1F D0 1A C1 AA 9B 36 AD 1B B2 D2 AA 88 5F CC 41
 CF DA B9 9D F3 5D 59 31 D0 5B 6E 6A 77 A2 41 87
 76 A6 A7 BF 5A BC D3 8A 2E 49 FC 62 EF 64 10 88
 5B 28 E6 4C EF 3C AC E2 9E 3F 7A DB A2 52 CA BF
 EA 9F E6 D6 07 8D 6D E5 E0 10 60 B9 A1 D2 A7 B7
 13 C1 11 1C 05 06 BD B3 64 54 71 2B A8 FA 72 7F
 F1 BF D0 0B D4 DA AC F2 42 E9 B5 84 AD D8 84 16
 8E FF 97 E6 64 0A 98 0A AC F0 20 1C B5 20 29 CD
 1C 0F FC 3C A7 97 1B 03 D1 44 DE DF 7E D2 07 83
 28 58 C2 C4 E0 32 A4 FA FD DC 5C 31 57 02 35 C4
 7E 78 33 AB 02 B1 CC 9E A0 04 1C 6F 94 22 65 BE
 71 3B 37 9B 27 06 2C B1 85 4B C6 D2 51 99 EF BC
 2D 87 F5 52 6C C8 AB 7E 0F 5D F4 AB 52 41 0F E6
 AD 9B 82 B5 3B 81 C7 63 84 40 A6 08 3A E6 AA 15
 B8 E0 A1 1F FA 65 F2 34 30 36 3C 3B 30 3A 26 8F
 34 12 EE 95 6D DA EE 7E 53 31 0B 3F E3 27 A1 77
 C0 0E A5 89 25 2C 61 AE 64 55 B2 E6 44 18 B9 B4
 94 4F 60 9A 8D 1C 05 A3 84 F3 08 22 0E 5E 6C 27
 DE DC C5 95 F5 E0 2E 0F 42 22 73 B7 02 9E 42 A5
 19 23 23 09 41 C3 2F 25 0E 12 4A C1 68 82 7F D5
 EE 54 70 3B BC 8C 0E 8B 44 27 3F 10 B1 BD 18 DB
 23 F6 36 AC 5B C9 3C 36 32 12 24 1B C7 16 49 F6
 C4 95 6B 76 FA 38 C2 4A 72 36 31 4C 5F 27 81 EB
 56 8F 6F DF F5 56 3B 2C 96 4C F1 5F E7 41 6D 36
 50 CA 67 0F E8 29 E0 C6 5B 9C 8E 8E 02 A3 33 77
 2F 88 F5 D9 58 2E 04 AA C9 2D 12 83 CD 8D 24 96
 B4 52 26 BD FC F5 B3 0A 4F 8F 3B 74 54 1F 10 40
 51 5C E6 B7 4D 4B FD DB AB 3A 0E F1 0B 5D 4E B9
 3D 8B 29 56 7D A4 D3 B7 F8 34 EA BF F6 FE BC C1
 B6 63 E4 D0 FA 57 9E 2D 43 A0 ED 98 F1 23 22 38
 CD D7 DC 85 E6 1A 0B FB A6 2D C1 4F 88 A3 17 B4
 CE 0D FC B2 35 C9 59 2C 75 4D 04 54 79 2A 4D FA
 68 AF 76 49 43 CA 38 22 EF 96 1C A6 A7 60 45 4B
 F9 A7 64 35 6D 4F 8E 9D 32 6E 2C 16 BB 25 F6 71
 D3 8C E6 78 C5 08 07 20 C5 E0 7F 43 3D 47 76 08
 D2 34 D4 E0 01 41 42 44 BF 9E F4 61 63 35 48 73
 5A 87 4D 3C B2 00 03 6E C3 E4 1C C4 12 AA 82 AD
 3A F0 37 0A 0D 3F 50 2F 9E 34 BB D2 03 0A 07 D6
 2A 71 48 EE 0C E3 33 FB A8 71 AC 1B C1 D7 39 BB
 09 88 67 18 92 84 53 1C 89 DE C9 9E 01 94 F2 10
 42 6F 98 6B C3 44 0D C8 A4 2B 0A DD 88 0D 24 2F
 94 9C 56 17 A2 00 B9 11 82 08 E2 1C 1A 77 A2 B4
 72 F5 CB 86 A1 C5 43 92 D6 FB 7E 3E 1F 54 C5 76
 69 F9 63 86 5D 99 A4 9E 37 47 D3 C8 EF D6 FF 47
 8A 19 D8 E1 5D 03 B0 99 92 BA D4 9F 6E 1C E3 F3
 4F 4E F6 C3 2C 18 61 11 EA 7A 70 8A 5F F6 82 E1
 DF AC 21 4D 4A 0B F4 9F 34 3C D0 F0 5D 84 81 D7
 A4 27 47 75 97 37 57 AE A8 64 7A 25 6E D5 A7 CB
 9A 7D DE AE 6F 81 50 77 11 FD 1B AC 66 89 BD E6
 E9 47 F2 BC AA 6D DA D7 07 D3 3D 51 2F 40 C8 92
 BF A9 96 EB BC DD 7E 90 0C C4 F9 33 B9 DC 4F 3E
 17 18 CE 84 F9 0C 38 21 72 DB 78 10 95 9C 57 7C
 73 44 F2 86 AF 27 13 60 7D 2F 48 8F 41 CD 1E 10
 D2 DB DC 06 6E FC 3C 07 98 66 95 02 D5 F9 2B 08
 62 4F 50 89 87 DB 8F 7F 36 5B BB 4F 9A ED 52 E9
 0C 64 3A 80 3E 7C 15 FD C6 D9 B0 90 CC C9 ED 57
 F9 46 6A 27 51 E4 60 14 1A BF 89 4A 4D 3B AE 61
 49 52 0A 43 AD 7E 0C EC 15 CA 6A D6 A7 2A E3 CD
 C8 40 88 DF C2 66 19 C2 55 53 CD 0F 82 0E 64 1A
 F4 05 A0 65 25 E8 45 B8 7C 7B E4 9E 57 E8 D8 D2
 93 F7 65 86 1E 64 0C B5 2E 67 45 D7 56 B7 89 1C
 E9 77 03 8E 2B FB 0E E6 CA B8 11 46 58 C1 4E 66
 95 DF 33 6F AF F3 A6 5F 1D AE 0D DA B6 76 EF 97
 B5 C3 AE 8C B4 09 AF 04 2A F0 B4 D6 20 02 68 56
 1B 97 E7 A1 84 CB 6F 51 A7 D2 93 18 97 E0 E8 A1
 3E 63 C9 10 FB F8 A5 3E 22 56 40 90 E3 15 71 6E
 DB 72 66 04 8C A4 A2 B3 2F B7 FB 76 61 85 C3 AC
 C2 0A 89 64 A5 16 6E 73 C9 EE 2C 9D 1C F8 14 9D
 13 31 4F 2D 93 D7 77 AA B8 B6 3B 9A E6 E5 8F 23
 12 CB 25 DB 92 05 96 22 26 AB 89 52 6E C3 7D E8
 F1 FA B6 1F 0F 0E B8 EE 52 C5 B9 F5 EC 6B ED 42
 08 E5 66 C8 DB 71 F4 26 B8 F0 82 1F 2D 1E B5 74
 1C C6 72 56 32 76 EA 30 99 C1 F9 DF AE 63 CF 16
 5F 02 8F 40 CD 2D 37 F7 42 C1 BF B8 F1 06 57 8B
 7F 9E A2 3E 32 7A B4 E9 BD F7 0B 0A 27 7B D0 51
 87 A9 6E CB E6 C5 45 7E A6 09 B4 CB 76 43 C3 55
 74 B3 D7 25 9C 67 54 FD 23 74 17 4B ED D3 A7 7B
 2F B0 B7 47 05 88 33 B4 36 25 99 4B 80 4E 76 4D
 D4 73 DE EF 9B 6F F2 1C 4C 45 F0 DB AD A8 AC 47
 8B 99 72 6B 4E EC A3 8D 35 9E DA 1B 84 6A D9 22
 8E D4 1D A1 C9 E7 73 CF 39 05 0D 24 75 12 D2 9A
 A2 A0 9C 7B D3 30 BC 64 E2 9D A8 82 2D BD 32 A9
 39 85 AA F2 96 B0 C1 87 48 E4 AE 1D 76 4F 27 4B
 99 76 C3 01 07 2B CE B8 A9 54 01 4F 26 BF B2 D9
 36 EF 5D 06 13 F0 EF 66 3C 78 90 28 38 2F 80 87
 9D BA 96 70 0C E0 C5 23 C9 15 BB 59 D1 22 97 CA
 97 C1 BD CB CD B5 95 F9 A4 7E F5 A5 52 92 3F 1B
 C0 34 4D F7 69 CC F5 A9 C0 B2 66 04 AC 30 D6 C6
 91 85 2B 91 7B 80 BF 7A 61 46 28 A0 FE AA 77 62
 17 67 92 D6 B0 24 9E CC 94 D9 9D 62 DD 67 E1 2E
 BE 6D 13 6E 25 51 3E 6E 5E F6 0A 39 E3 1F 9B C0
 9C 3A 1C 9C AF C5 17 90 69 E7 74 9D 40 81 1E 6F
 DB 76 C9 0A F4 1B 25 75 28 2E AB 99 43 9B 7B 73
 E0 0F 50 7F 1A BB BC 55 94 25 A4 01 CC B0 82 B9
 C0 39 99 41 49 1D 56 C1 B2 73 26 9C AF 22 A8 23
 AA E6 B4 99 1A 42 10 8F 06 ED C7 A8 73 32 D9 BA
 F9 EA 07 18 4E 89 54 0A 47 90 88 B5 DB D9 68 0C
 2B B6 B5 56 A1 52 A6 68 3B 36 4B B1 27 36 77 57
 47 57 3A DB AE 5A 27 90 CE 1C FA 62 B0 5B EA 42
 A2 73 45 A2 86 30 E1 44 66 1F 7C 60 63 A2 56 33
 C7 DD 76 44 FB 58 C5 84 8D 9D 0D 72 66 FA 45 C1
 CF 9C 90 61 BC F9 FD DA D7 22 FE 19 DB FE 49 36
 09 83 13 B2 C9 FE CE 62 9F F7 7D E9 A2 75 60 D3
 71 6F 5B 33 CA EC 90 BC A7 D6 81 67 67 92 C2 EF
 06 47 D1 DB 98 23 71 C8 7C 07 A7 8C A9 13 97 CF
 41 8D CF 2C 95 C3 61 B0 D1 C0 8D 85 B3 11 EC C6
 AB AA 2B 13 33 AE D5 45 F3 06 C1 B9 B9 58 18 F6
 6C E5 96 97 86 F1 FA C1 78 90 C1 4A DD C7 9B B8
 3C 58 0F AE BD 5C 34 5C 16 2F B0 FD 60 AD A2 7B
 D8 FE 84 72 BC D0 0A C1 D9 B3 13 8B 33 AB 5B 97
 A6 A3 2F E4 62 55 77 A5 CB B9 7E D1 78 02 20 20
 B2 AD 21 E5 8E FF C1 81 19 A9 C5 29 2C DB F5 37
 24 69 1F E3 C7 E1 CE 6A 86 BE FB C3 41 24 BF 35
 A0 A9 D3 8C CA 2F 7B 45 40 6B 0E 0E A4 BC 54 6A
 D2 C1 CC A6 05 93 56 FB 82 E3 EA 9D 2D BB 7E BD
 E2 9B 20 53 9B 6E A7 FA 5D E7 52 B4 C0 E3 98 A4
 5D EC 19 4A E5 3D DB 1A FA 8B EC E3 01 26 C5 F3
 49 AC A1 F6 05 6A DD 31 A0 8C 8E AC D9 0E FD 8C
 8F 3F 14 D3 10 D9 33 83 C2 FE 3F 65 65 49 89 9E
 54 CA EE A3 0B 3A 99 E0 5F 95 EC 02 26 AE C6 09
 E1 26 29 14 19 F7 B9 0F C6 91 46 25 F3 1F 26 89
 64 8D 9D C7 58 80 0E EE 47 33 F1 82 F2 41 29 EA
 88 01 99 8D 2D FD 1C 9F 87 8E AA 97 5B 16 73 1F
 42 29 EA 60 EA C5 6E 6C 26 7F C6 3E 20 66 C3 2A
 22 BC 0A 12 34 A4 6C D3 D4 FA 8F B1 2F A8 21 10
 08 3E 2C 69 90 E8 27 D6 FE B8 C1 6C CF AD 4B 4B
 2F 7B 3F C9 72 B0 B5 D1 D4 86 31 82 98 DD 66 75
 07 88 B7 77 2A A4 D8 FB E5 32 CD C3 FC 13 47 1B
 42 2D 1A E7 35 6C 93 FB EC C7 2A 25 ED 33 6E 4E
 AE 7D E5 5E 73 88 83 5B D0 93 A5 66 4F E4 7D 07
 4C DE 16 34 BE E7 90 62 FB EF 90 34 5D ED 5C D2
 F6 95 CB 2B 2A 15 E8 E9 01 64 A9 11 F9 FC F0 9B
 AB 58 79 EC 43 38 F6 40 EF 36 18 15 8B C8 55 4F
 3F B1 2B 0B 6D DD 03 3B 7C 83 10 EE EF 76 6E 18
 F5 EE 77 08 B9 D7 4F 12 4D AE FD BA 61 A1 4F 10
 F4 05 25 75 B0 21 3B 3C B7 FD 9E BF 41 F9 0B 3E
 55 DB BE B5 F0 E2 C6 A8 3C B5 7A 1D E9 BD D2 0B
 F5 33 8D 43 32 2E AD 19 96 66 6B 14 4D 32 9D 9A
 9C 87 48 44 25 EE 02 45 66 6C 74 F5 AD 79 04 74
 2F 33 FA 11 7F E4 3F AF D9 ED 45 BC 87 38 80 C2
 29 33 94 06 82 43 1C 56 C8 A8 D9 8F E9 20 E3 7B
 DF F9 EB 35 0D FF 02 6C F4 06 0E 58 CC AC 7B 1D
 F6 BB 27 90 C4 E8 E7 C5 E4 97 7B E1 33 3A CE 42
 34 77 09 D3 D9 EC AD 03 CB 17 5A 9B E1 3D BD 6D
 D6 D7 4B 8A 21 A3 30 6F 0E 01 3A 4F A2 8E C8 21
 69 77 9C 29 5E 6E E1 4D 31 3C 1D C1 BB 7B 97 E2
 65 2C 19 C4 89 6D 65 4B 98 E3 B8 D3 BA 85 55 26
 EE 8E 7F E1 93 BE 00 D2 07 2C 20 AA 85 96 50 BE
 92 04 4E 7C 5F 0E 3A B8 9F 45 DC C4 88 E6 8F BE
 64 2C 19 A6 1B 7B F4 49 0A 09 03 2A DC 24 89 D3
 E0 CD AF C1 AC 17 DF 7E 23 C1 63 70 11 EE E4 AF
 BA EC 0B D0 D4 38 9C E7 A9 F1 0B E8 6A F0 BA 40
 66 21 DB BC 1D D1 0D CC 06 AD 89 DE 00 8A B3 B2
 68 78 BC 61 93 32 A5 39 FC 1D D7 1C E1 CC 70 1A
 70 63 0D 82 DA E3 11 84 93 ED 8A 7B 74 41 D8 62
 CC A6 1E EE 6B BB 12 DA 7F 47 7F 55 A3 E7 2B D3
 C5 5E 06 62 E5 B0 CD 79 46 2A 78 41 42 BC 16 CF
 83 D7 C2 55 4A 86 3B 1A CA 00 AE 10 8F 09 D1 55
 FB 6D 9E 89 D3 DD 59 BE CE E9 6D 14 9D 0B 0E E9
 6C 00 C8 96 24 E8 75 C1 68 50 F6 17 9B 24 F3 DA
 75 AA 37 22 DF CE 89 BE 90 70 C7 AF A8 02 BE 9D
 16 17 31 1D A7 9A 99 C3 2F D2 2F 31 B5 44 BF 1A
 75 8A D3 41 B5 ED 30 1F 5D 45 F0 9B 8F B3 80 A4
 E8 E7 80 01 37 EB 2E 04 72 72 34 E9 4B 7F B1 C5
 B2 AB 30 9B 86 F5 26 23 AF A3 76 A8 53 2D 4F 13
 E4 D1 87 FE 29 AC F5 CB D6 05 FD ED 6C 94 18 1D
 71 78 22 37 07 29 FE B8 98 BA F6 60 55 F3 F8 99
 A2 A4 37 38 86 DD 49 E3 B2 84 00 D5 EB 74 A3 1A
 E6 12 3A 9D 03 BD 6E 5F 29 9B A1 6F FD CF 13 BD
 A8 12 95 A8 10 66 9E 57 CD 18 31 BF FC 1B E4 AF
 E3 79 C9 A5 FC 38 3D 64 49 45 8F 4C 31 64 15 AD
 76 54 B4 62 A8 FC 36 97 E6 F2 7A 2F 04 BE 47 53
 A2 97 F6 FC D5 8B 19 C0 D8 BC E1 09 E0 CF 51 E5
 02 88 55 C4 D5 86 AB B8 89 B4 45 EE C2 34 D1 AD
 53 90 15 BB D5 8D 28 E1 25 BF C7 56 23 87 FE B3
 3F 50 53 87 2B D7 31 70 FE 2F 2F BD 30 C2 66 4D
 3C 3D 7E 76 C6 AD B9 6A 62 A8 75 45 CA 63 DB B5
 85 A0 A0 95 2A AD 63 0C 1A A6 D8 F8 E3 01 13 11
 C2 27 19 41 21 CE 28 2F 05 C2 91 B8 6C 26 DD 47
 0F DB E6 17 F2 7C FA 94 83 E1 FB 8B 0E B4 3D 33
 37 A9 15 09 39 65 9F CC D8 18 8B F7 73 28 BC B1
 D0 BD 13 5C 1D 39 2C 6D BF 68 1E A5 1A FB D3 C1
 FD F3 81 F0 B2 19 26 C3 1A 32 99 5E 27 17 04 B9
 5E E7 EB 69 46 00 A5 8E 50 1D D0 EC 80 77 9A 48
 C5 CF 86 9C 78 E0 E5 ED A2 D8 79 BB 9C 8F D6 2E
 FE 29 25 26 2E D7 C9 A7 21 CF 2B FE D7 3A 55 3B
 50 96 17 09 A6 DF 99 EE C1 2B 02 55 C9 B7 B7 7E
 58 D5 78 36 8D 43 06 C4 0B 2A FB 7E DD AC A2 F8
 B7 4A 3C 54 9A 2F 29 4B AC B3 65 4F C7 FF A4 D2
 DC 1C DF A4 76 67 70 B9 40 31 BD 0A 07 D5 1B 26
 5B B7 46 C0 CA 7D 38 B6 DB B0 56 1D E8 2C 21 48
 C7 92 AD EF C5 86 3B A4 2A 95 4A 74 B2 0F 6E 0C
 EF 31 BE 38 F3 F1 9A FC 53 04 E6 E3 8A 45 6F D6
 48 9F 4A 2C 0A B9 D7 3A AD 26 08 AE 32 1D F1 EE
 33 E1 44 07 16 74 1E E3 DD 73 5D 65 1F D1 97 DD
 44 F1 13 8D F9 29 48 D5 D9 3A 2E 0B 49 6A 18 5E
 EA 68 61 3A FB 3B C2 14 99 9C 28 5B 3A 4C 4F 02
 08 D9 03 36 60 59 17 2F DB E1 8F 52 BC 23 6A 01
 5D 86 62 28 CB E2 6C 1C 7C 70 A7 7D 7D F0 2A A7
 D5 B1 2A FA 57 40 C3 16 8B 8E 1C B3 CF F4 BF 20
 4B CB 33 82 DE 70 F5 A9 55 16 31 6E 2A 9B 07 5A
 68 30 3B 48 D4 54 34 BD 64 A8 C0 D4 1A 24 E8 C4
 12 48 AB 69 DA 5B 0B 7E C2 61 40 F7 5F 89 B5 FB
 79 53 8A 6B DF EF 29 7E DF F6 AC A5 24 0E 53 C4
 7F DA F5 1E AC 99 29 5C 7A DF 56 7B A7 02 3B 69
 95 C1 15 47 9E 9A 1E EC CD 9E FF 46 76 32 5F 21
 71 CB 48 D0 C6 C9 5D 35 87 6B 70 2C 50 98 41 6D
 42 CF 8F DE 07 1C C8 1D 14 BD 67 26 8D DA 87 D1
 C2 A3 C2 23 74 D9 A8 63 64 E4 FE F2 3D B2 09 44
 A7 3B F8 65 88 67 82 98 4C 45 13 66 56 D0 9A D0
 30 8F 34 97 01 BC 3B 5C 2E 26 0B 72 8A 03 95 F4
 26 63 20 D6 2F C5 51 C8 E7 AE 7F 8F 67 2C 0D 52
 EF 7F 2F 54 12 4E 13 C7 65 E1 16 75 40 8E 92 74
 16 C3 E0 82 24 D5 B7 04 69 4F 86 B4 B4 CB 9D FF
 0D 29 66 89 66 9B 10 89 CB DF 7B CF C9 03 13 DC
 78 68 0C 5E E0 4F C5 49 AF EF DC 05 9E 55 08 DE
 35 C1 71 D0 69 C7 5A 46 61 64 2C 52 2C 69 86 6A
 34 E8 2C 75 A1 44 0E FF C9 BA 33 5C 46 20 38 DC
 3F 3B A9 63 62 66 22 17 F2 19 7A AC 49 F4 54 C1
 39 9B 58 08 8C 4A FA 18 31 BD 6F 93 AC DB AA 92
 55 83 5E F6 A7 01 06 6A B6 B5 2A 68 9A 81 07 46
 B9 18 24 7B BD 7E 1C E8 6C 50 6A BE 8C 4B 7C 1A
 84 69 1B F6 92 B5 FE E6 8B AC C0 ED 0A B7 66 9B
 01 59 D1 F2 4C D5 32 D2 7E AA 5C 3A 09 C3 B0 5D
 00 92 9C 97 41 0C 8D 92 9C E4 E6 75 58 4D F4 07
 60 0A C5 1D 87 99 1B 19 EF 65 02 61 AC CE 76 49
 65 0F 89 8F 55 E0 AA 48 54 22 37 7D 90 AC EA 90
 D6 9C AF 75 71 6B 82 22 07 B9 0F 92 54 B4 F4 FA
 C9 05 FF 25 10 76 51 58 96 62 F0 C5 BC 92 22 4B
 BF 9B 3E DC 27 2C 2E 6F 86 75 DD D0 9B 65 28 3A
 23 EF E1 C5 1D 0C E3 00 D9 13 E0 AD 14 45 42 A4
 39 62 F3 2A 5F 94 24 D9 A3 1E D7 45 1B 04 79 37
 C6 D3 05 62 DB 76 47 31 1B 5E F7 EB ED 50 46 7B
 DC 78 B8 FF 0B 58 49 BC DA A7 42 DB 00 29 CE 3B
 20 20 D7 87 EE A3 3F 37 6F 31 95 D8 03 18 15 6D
 12 8C 73 DA D6 E2 6E 17 59 CC 46 19 BF FC D6 67
 29 E0 9F B7 FA 38 F0 20 52 8F C0 ED 31 FA C6 02
 C4 40 8B 5C 40 E0 E0 6F DA B8 E8 B7 C2 C4 0B B7
 50 2D B0 19 14 AE 15 AA F9 EE 1E CA 0F 98 82 25
 B4 4E B2 D9 54 52 B9 47 5A 9C 7E 6D 79 C6 C4 EA
 AB 85 25 A7 D2 53 93 06 32 20 F8 60 37 03 30 0E
 FD 8C 17 7D B4 DD 72 00 4D CA A5 5C 1C 8C BB C4
 B2 84 2E E0 35 F5 87 F8 2E AD 5B F3 A3 C1 0E 51
 D0 51 E0 CA F3 CE 54 FE 81 A0 03 49 CE A5 64 1E
 D4 92 B0 CB EF E9 1B 4D 9F 6B F8 2A 4E 97 D5 D5
 C2 51 F1 0A 3D F9 F8 31 71 3C 1F E7 4F 05 75 03
 8E 20 A8 15 AA B2 4F 8B 6F 02 D9 C9 70 ED 3E 58
 86 A9 BD C8 DD 54 45 90 15 DD 6A B3 DC 77 FD 5A
 40 6E B0 EF F8 C7 9B 27 91 30 B3 2D 04 97 99 A5
 F0 25 A6 BB AF 5F C3 5F 54 F8 1A 64 35 67 47 A5
 6C F1 F1 FC 82 6F 2A 64 36 31 81 C3 CA 66 C0 76
 9F F8 36 FB 1F 02 CE EC DD 27 C7 0D 0E 1D 0F 24
 69 0F 7D B7 BC 00 8D E5 62 44 10 4D CB 60 E6 FA
 36 BA B1 16 19 D8 93 05 E3 DB 5C 4F A9 E3 E0 A4
 9D C5 9B 82 EE 0F 1E 7A CC 53 D0 CF 70 EC CE 23
 0C 12 18 27 88 0C 5C 50 77 C9 0D 5D FF 5D B1 C3
 A1 E9 9D 2E AC 7E 93 B0 CD 34 49 CD 3A B5 E4 00
 05 EA C4 3A 0C 69 4E 11 EF 00 B3 40 01 A7 D6 95
 B9 71 2B 7B FD 64 B6 0C A5 26 01 94 08 B0 13 58
 09 5A F7 E9 C5 F4 D6 16 0C 9B 8C 9C 56 25 6D EE
 28 BA CF FE 39 0C 5B 4A 89 0B E3 5D 4A D3 E7 9C
 79 33 0F 71 A4 BD 8C 28 67 92 39 71 5A 7A 98 C3
 01 B3 14 3B FB DB 0C 82 88 AC 7A 8F AB 5A 5B B0
 07 49 7E F6 2A 56 DC FD 54 C6 5A 0F A4 E5 F1 77
 7A B8 98 27 21 52 31 53 F8 86 78 1C DD 1F 0D 4C
 63 4E F9 1B 3A CE 65 75 0C 42 38 32 82 16 FB 05
 5A EE D3 A1 52 2F 72 0F 3F D5 FB 2F DE D7 E5 A3
 3E D1 F4 94 57 CB A4 89 4C 54 B0 3F A4 EB 52 DB
 26 6C 3C 0F 76 BC C7 65 BE 13 4D F5 A8 20 B8 A7
 FF FF E1 32 73 E5 7A 8B 18 80 9D 78 E4 ED 9F BD
 DA 87 F7 DA 86 8C B8 60 7C 5E D8 72 68 21 53 6F
 4F 0E 81 E7 33 40 7D 83 A5 DF 37 E7 9F 45 52 67
 3B A0 64 E3 AD EA 00 AB 5F 34 61 22 7F 7E AF E2
 75 87 6D 79 5D 54 00 AC 08 D7 EB CD CC AE 74 74
 54 31 4C 36 C7 88 80 0C 33 A6 B1 72 F5 E7 5C 4C
 05 77 DF 0D AB 1B 39 B4 10 4D A9 5A AD 35 77 C6
 AD 2B 0B DD 13 4F EE 8B D4 64 AB AB 45 D5 5C 59
 77 E3 53 DB BB 2E 3B 90 41 1C F8 5C 9B 16 07 A3
 DC A2 66 1E 4E EA 38 34 37 C2 BF 30 71 D1 5E 7E
 61 82 46 F1 FB 57 38 A3 C0 1B DD 05 DD 42 48 9F
 79 6C 26 14 13 C8 BF 32 56 39 FB 1E 1E EE FA 5B
 3F EE A8 AF E1 85 C1 8F DC B8 C5 33 5A BC 08 90
 B0 7C 65 F7 35 C5 28 10 4A 14 01 35 FC 3C 75 00
 88 EB AD C6 98 66 BF B8 20 FD 1F 48 5F 3F 85 82
 7B 00 8D 94 39 3D 80 65 15 84 BA 4B 48 7B 22 89
 1B 8B 1F FE C8 C4 35 02 38 7D 1D AC F9 F9 46 F0
 44 E0 2E 33 27 78 B3 6C 85 45 5A 8F 69 21 62 1E
 2F BE F8 BE D9 D3 71 3E 8B 54 2F 62 D3 5B 0B 91
 8D EA F6 6F 7A A5 4F 29 DE 62 4F C9 26 6C E5 82
 2C 99 9F 6A D4 87 7B 04 A4 2B 2F 00 47 B4 40 05
 9B 39 14 14 97 AA 8E AA BE 70 A3 9E C6 B0 D1 C1
 A1 6F 1F F0 1D 3A D4 EF 9F 0D ED 8D A8 C5 98 D9
 F4 46 77 1F 7A 28 DE CA E0 B4 9D E2 8C EA 56 53
 E1 16 B0 62 47 59 7C 15 27 8F 55 01 EB 0A 62 00
 43 90 EA 6C 43 A6 5D A1 37 76 86 9E C2 03 FF 9A
 BB 43 1B 58 A7 DC C1 6C 5E 69 B0 83 24 1B B3 A6
 E7 73 9F 25 07 6B 7F 5C 29 E1 54 5C 91 33 41 62
 22 34 54 51 A6 F9 05 FB D8 8B 38 37 55 E8 E8 7D
 70 A5 A1 2B 6A 6B 93 FE 02 33 64 DA 34 64 68 1B
 DC 6B 97 E3 D9 F6 A8 F7 17 33 46 B0 2B B9 5A D0
 0F 16 A6 2D D5 D5 8B 87 6B 05 D5 59 A6 BA EE 4A
 B5 4E 90 15 FE 3C 33 79 A1 27 9F 45 AE 9F 31 52
 2D 08 B6 3A F8 A4 F7 69 0C CA D9 72 4F 1A 08 19
 6F 2A 18 F9 28 F5 D9 1B 48 AF 89 B9 B5 68 B5 09
 15 E3 F7 9D 3A 5A 96 C5 EF 02 EE 25 8E 72 0A 19
 59 45 54 4C 23 73 A0 E2 2E 55 23 76 B3 D8 94 E9
 C2 1F 75 CF 4C 0F 9F 40 E3 72 64 C1 AF 99 E5 A1
 8A 01 75 F5 2B 8E 1A 67 BB 89 71 29 25 CA 97 16
 B3 A9 71 62 88 0B 0A 0B CC 27 11 F7 D5 7D DD C4
 C8 84 A3 95 B4 08 D8 2E 09 5B F0 FF 4D F0 F1 43
 C2 86 60 61 65 A2 B0 23 CF 8B 4F 77 DE 12 62 08
 00 72 AC E0 7C 8F 08 57 58 44 FD BE F9 25 D5 61
 24 D0 44 0B 94 25 A5 D2 3A A0 A8 F1 6B 52 FF 0E
 9B E4 DA FB 48 70 E6 F1 5A EB 6C 3A C9 24 E8 28
 B0 59 EC FA BB FD 8F 6C A1 D8 FB 1C A6 72 68 12
 24 38 5D 9B 64 7A B5 63 7B 09 5B B3 D2 38 8B F0
 CF EC 1A BB DD 69 FB B5 27 64 AD 56 CD 80 AD 36
 9B E8 A9 D0 EC C9 50 4B 0A BB BE 0C 07 EE BE 20
 CB 26 90 93 02 49 52 10 6B 45 FC 47 D1 79 D4 E9
 2D 4F 99 9E 7B C4 FA 64 6A BB B7 B2 4F 12 01 70
 D3 FD 34 54 66 C6 FE 2B 2D 96 AB 5F 3D C7 0B 59
 B6 95 7D EA BB 00 FE F3 57 6C 7C 78 FA 62 15 52
 9A E7 14 8F 04 72 EB C6 0A E3 31 1F 2A 45 4C F0
 7C 4C 73 B9 07 9E BA 33 FA 88 CD 8D BD 7A 6D 06
 28 97 E6 6D 5B D9 7F 51 29 CA CB D1 A9 08 6E 86
 18 2D 91 70 9B B7 85 B3 AA E5 36 42 04 CA 37 60
 55 9C 2F 1C 58 97 23 8D 88 B7 FD 1B 5A 7E 10 1D
 C1 A9 9F 53 80 5A 4C 0E A8 3B B3 D5 72 05 5E 0B
 10 95 C0 A9 BA C8 2C 94 7B 2F F1 9D B0 4D 55 86
 A4 50 BB AC BE 37 9B B1 82 3B 64 23 80 EB C6 02
 2B EF E4 54 85 4C A4 B5 4D 7D 05 36 51 F1 BA 48
 FE F7 B1 4E 7F A2 8F 18 89 B9 5B 81 5B 26 2C D2
 8D 43 54 8B 67 6F 2F 15 BE 4E 9A CE 84 3B 3C 31
 6E FA 0A D1 61 44 7C C2 A1 DC E8 70 AD 03 97 7B
 82 C7 D3 D9 69 A1 8F 63 5B D2 46 7B 72 9A 57 B1
 68 08 67 F9 77 C7 4F B1 68 5C 04 C5 4F 51 34 E1
 63 CB 05 28 18 F3 A3 77 65 3C 24 32 B6 93 1F A7
 AF BB 4F 3D 26 FE 99 E2 89 F3 FD 9A D1 F2 2B F3
 99 95 EB 6C 3E 2D 06 9D 74 C7 A4 40 2E A7 D6 A4
 B6 AD 71 2B 41 DC 0C 9E 01 66 36 E4 49 83 20 3B
 39 0F FE 12 75 5B 41 B3 7F D2 48 E8 CA 05 C8 40
 3D 13 06 C6 67 FB 84 B1 DE 7D F4 18 90 20 CF 4B
 EE 20 8B 07 1F 58 D8 93 57 C1 BC 08 8C D0 31 ED
 82 F2 8A 93 14 5C 22 97 7C 76 85 21 BE E4 31 AE
 5A 46 41 2D FC 7A BD 93 6E 47 1A 1B EA EE 95 7D
 39 F3 49 B8 10 D8 A7 15 A8 F1 68 83 B6 D7 E5 4C
 B8 58 DE 4E 09 E9 E1 45 47 C4 9E 53 9E 95 15 FE
 AD A6 56 0D 75 70 BF 54 21 48 89 D6 1C 8E 9C FA
 29 0F B4 86 59 58 B5 36 BF 19 4E 99 69 0D C5 4F
 FC 84 DC B6 07 8A 83 59 9C AB EA 3E 32 B7 B4 54
 03 C5 77 2C A0 5A CF 9D 45 64 69 13 9D A7 55 64
 2B DE D2 1C 02 1C 31 EA 72 25 96 B9 6F EB 98 AC
 74 3C AA CF AE BB B2 50 96 66 38 E8 FE 97 4B 17
 28 AD 95 FD 60 E5 19 7F F5 48 E0 DD 5F DE 4B EB
 76 79 23 9B 4C 88 EA CA 9D 46 E9 66 26 D3 97 2F
 E2 92 CE B9 2C 4B 51 D9 35 D6 1B A5 80 57 BA 17
 09 D0 F5 CA 1F E7 A7 1A 7E 5E 59 09 33 43 4D C6
 5A 4F FB CA 04 A3 8D ED 71 C2 4C 3E F7 15 85 A3
 BA 89 21 4D C6 86 1C 03 95 AE 73 2A 9E 79 88 A6
 24 09 41 B2 00 C9 80 1E 35 2B FE 5A 52 DF F2 03
 1C 78 BD 36 1D 30 4E 4A E1 76 E6 7A 16 E7 6B E2
 A0 21 54 86 3F 4A A8 7B DF 08 31 85 A7 43 BB 36
 DD B4 EC 63 43 3F DE 2D 78 C6 F1 9F A8 7F 94 07
 7D 7B 41 69 90 E8 3D 6D DF BE 37 1D CA C4 5A 7D
 AD C7 06 F2 95 B1 57 EC D4 C2 01 81 6B 79 FA 3E
 4A 94 0F 6C 6D E2 48 95 FB D7 79 1C 32 D5 13 DD
 1A 9F 0A E7 75 72 D8 7E F7 18 A4 2A 17 FC 4B 1F
 FD 84 F2 29 BC 72 53 CE 08 5E 46 5F 84 DF B1 A9
 7F AB 4B D8 D7 24 2E 62 42 D4 A7 40 64 BE CB 5C
 DA DE 41 17 89 AE 4E A9 22 7E 09 0A 15 D6 B2 42
 0A E3 DC C5 77 54 51 7E 9F E1 07 86 8C 78 B5 8E
 3A 64 D5 8C A6 3D AB D9 AA 12 7F 60 DC 6A 65 69
 24 DE 17 1D 6C 95 57 53 F2 ED 8A 11 FE 8A 70 AF
 77 44 C9 B4 09 51 8D 2E 2D 75 E7 6A 2E 8E 4C 87
 1B AB 69 80 98 FA E5 4C B1 0D A1 61 A8 D3 2B 68
 41 A1 7C 77 F9 A3 C8 98 A6 4B 84 51 6B 00 64 D9
 06 2E 13 39 26 92 35 A8 EC AD 57 31 D4 60 81 2E
 86 C3 D6 72 1E 4C AF 23 66 70 75 3B 7F 8E 1F 76
 7C B5 5B 76 8C 7B 1E 2E 1A C5 1D D4 DC E0 41 0D
 C8 54 8F 69 B3 D8 77 AD 02 8A 37 3B BE 2E B6 51
 C5 FF 67 A8 83 37 CD EB CB 2C 54 59 BB 47 CB B3
 13 C2 AB 88 A5 C9 76 FA 4C 2A 6E 99 13 BC 90 37
 CD 16 E8 D0 F6 0B DC 1B 8C EF D0 B2 CE F9 C2 AB
 3B 5C 9C 8F B8 5A 97 31 DB DD 8C 32 0F F9 4A 59
 2F C9 2C 30 EA B5 4D E8 D1 B0 BF 48 49 0B 8F 8C
 DD 47 18 01 58 52 B2 2F 66 51 F6 0D 1B 43 27 67
 9A 9B 1B 91 06 AC EA BD AC FF 46 25 3F 6C FC FD
 B1 F3 1C 8B FE 95 98 21 EF 80 4E 5A 16 46 26 C8
 36 4F 19 C9 6E 3A 10 17 A8 D3 60 F3 14 C2 00 8F
 B8 B4 48 E0 77 69 A4 6C 4C 6E 09 D9 8B 86 86 78
 69 34 F9 5B A1 DA D7 6B 46 AD 04 D1 78 8C 18 E1
 28 3B 48 27 95 19 6E EA A0 95 77 62 BB 53 C2 C5
 0C 36 81 24 49 55 5E C3 88 16 AB 32 13 12 F3 CA
 07 E6 BC 1E 04 F9 18 C1 0D 89 B0 CA 3F 7C A0 46
 29 ED B8 96 20 59 6D 3A C3 04 F2 BB E7 35 7D C2
 AA C5 02 96 DA B5 DC 26 A1 5D 09 34 C9 BA 4A B4
 8B 7A EE B6 D3 74 AB D5 08 88 16 32 DF 02 3E 34
 34 2A 7B 44 78 2B 7A F6 66 B1 C1 4D 98 12 9F 6D
 FC F0 AD 19 A4 F2 7C B0 91 F9 A2 FA D6 7B D4 CD
 C6 A0 A4 B5 27 1D 8C 70 92 DC D3 71 5E F9 B4 77
 20 2C 3D F9 70 A9 E4 AA AB 66 AC 77 5E DF 66 38
 AA 29 35 6C 44 8A B9 17 29 45 8F 08 6C FF 5E F3
 2B 1F 92 57 03 3F 6B 1E 69 E9 14 48 CF 6F 81 55
 5B 3A DE 75 51 C3 38 8C AD 2B A8 D0 04 B0 5B 0C
 55 15 B5 81 A6 51 B5 F4 B2 44 5A 0A 67 DF 23 64
 C9 38 72 18 2F E7 25 91 4F 57 44 70 5A D2 A8 26
 2B 76 6A 7E 9D 7F 9A EE 04 C0 F2 8D BC EE A0 D3
 75 66 9B 07 D5 82 9E 3B 07 1D B8 C9 0C 1C F3 C2
 F3 BA 7C 64 C5 D5 A1 FB 32 91 C3 35 61 A1 A3 51
 85 BB B7 A0 FA 7B 75 DF F1 95 2A 1A 98 A2 24 BC
 49 04 C8 93 4B DE 86 F1 58 2E 0A 77 48 15 01 8B
 E5 7D 78 F2 E8 04 8C A2 89 EC A2 93 38 1B B8 08
 55 96 FC DE 19 C8 CD 2C B9 18 13 ED BC DB A6 41
 98 7F 4D 6E 41 91 6B 2F 67 BA 1C 2D F5 D3 5A F3
 A0 D4 CE 92 B4 7D 2A C6 BB B1 55 97 F7 2B 5F FF
 FB 68 DD D7 12 31 DC 0E 35 76 F7 9D 62 B9 9C 84
 63 D1 60 C5 44 A0 2D 10 A0 1D E8 C1 45 CF ED FE
 2C 7B 11 6C 7E 0D 74 EB A6 2A 1E EF 31 E0 53 57
 B3 4B 8E FE 8B AF 8C 00 52 F7 DD 5C D5 59 44 42
 2A 5A 97 4F 1E E9 D3 93 D0 F4 F8 50 6F 79 5D BC
 15 50 66 3F 65 84 11 4C 68 C5 51 99 04 2E E0 8F
 1C 50 AF 46 EF 2C C9 77 15 D9 F1 68 B4 91 AD 39
 01 D2 6F D3 EE 2B EB 7C 9C 28 AE E2 2C 71 8E 25
 FD 18 83 97 8D 14 2E 02 90 5B 1E 76 F9 A5 AB B5
 97 A1 B6 9F FA 3F EF 79 DB 08 75 D8 AB E7 E8 F0
 8A CF E7 E5 64 AA FF 4A 19 15 A7 B2 FE 85 45 0D
 52 B7 4A 50 A6 F3 64 F4 51 39 5C C1 8C 6F 5B BC
 11 A9 59 77 E6 88 C8 A4 19 80 40 68 C6 F3 BA FF
 52 29 D2 59 89 0C C7 25 F2 40 B1 01 16 B5 82 52
 A2 6F BB 0C 0A F0 38 AF DC 5A CB 6B 67 AA 4D C7
 93 BF BB 8A 6E 22 D1 63 77 A0 88 26 F9 E9 A1 62
 12 AE D2 C8 29 84 57 B4 0D 5E 3B FF D5 AC 8F 9E
 8E 3A 3D E6 9C B3 D5 01 02 22 64 6A D2 BF 3E EF
 46 31 F7 D9 CB F5 17 E9 6F 5E 14 72 1F 41 8D C3
 15 44 47 F5 C8 74 E2 49 5D 65 44 7D AA 32 B6 EC
 15 C7 0B 64 ED DA CF 66 9E 41 FB 66 8B 35 F1 6B
 A1 40 FC 07 0B 39 1F A0 85 C9 16 47 52 0C 84 02
 D6 1C 42 A1 5E AE B1 08 81 6A D2 BA EB F3 51 C8
 A6 79 6C AC 8B E4 67 CC C5 8E BB E4 63 A6 2B 71
 2F 97 2E 46 63 52 AD DD 56 83 39 F1 37 FA BA DC
 06 40 6C 13 23 47 EF E9 17 2E 4E 05 CA C9 DC 8F
 EC 76 C7 2E D3 5A 12 83 DC A6 58 03 FF 27 FF 9A
 51 BB 19 73 05 FB F6 C0 4A 70 BB 7F CD E2 FF 50
 E2 CF 8B F9 A8 4D 6F 83 2E 03 4A E7 98 12 E1 9A
 8E AB E8 1D CD 4C C8 00 57 26 98 44 32 20 55 84
 FE 05 46 B3 00 C1 02 44 C2 35 16 F5 43 5B B7 66
 EB 1D 10 DB ED CE 47 5A 78 1C 38 1E 05 7A 74 68
 20 B3 75 15 6C 21 DA 4E 90 55 6A 79 1E 0A CA 2B
 A8 B6 BB A3 42 A3 B6 DA A0 DF 72 5D 4C 34 46 1A
 29 69 09 14 79 55 6C 9B 7F A7 EF 72 DB 20 60 13
 0C EE 24 98 2E C4 82 85 56 B1 28 0F 17 DC B4 17
 97 02 76 FB 41 31 A0 73 58 96 7B 06 70 1A F0 54
 98 B0 AA 43 53 0A 88 16 B6 1A 23 AE A0 CE B6 0F
 FD CD 8D 49 0A D2 E4 C4 41 5A 59 9A 22 C5 E7 FB
 3A 59 12 CC C8 92 B7 A5 B2 FD 0A E9 E7 E1 90 86
 51 7C 8A 1D CE B2 BC E3 4F F6 3B 87 A5 41 13 FB
 D0 17 72 C5 F4 BC 22 DE 46 B7 0B D6 02 3A D9 99
 C1 85 18 A0 83 94 7B 1D D3 97 7C A3 7A 8D E7 EE
 5B 4A 07 EB DB 42 43 DC E5 F2 12 C1 EF FE E7 8E
 31 57 82 E6 8A DE 85 53 59 03 DF 33 95 5D AD AA
 45 B6 74 54 7D BF 93 5F 6C 56 1C 5C DF 33 29 9C
 90 50 18 00 7A 93 4B 66 B4 3B 91 E2 19 D4 53 85
 73 D9 0C 26 92 E0 26 58 50 39 28 09 E1 B5 62 D8
 E4 EC 4D 8C 63 3A 3C 08 75 7C AA E0 15 1A 69 B9
 69 4F D7 BB 88 1C 5B 8C 10 E3 F1 F5 65 97 EB F1
 CB 27 48 1B B2 99 D0 E9 98 D3 C4 E5 CF 4D E2 BF
 6D B0 CA 1B 51 6E 24 E9 5C 16 C7 36 46 9B DC 41
 8B 9C D7 C2 4F DB 8A 9A 6B 90 5D 03 83 B9 06 C1
 70 D8 86 5C 73 E4 63 8C 21 1B C2 E9 C1 D7 EF BA
 4A 78 01 91 81 91 89 25 46 E6 96 40 98 35 93 13
 63 4C 53 79 5D 07 11 69 D6 B2 8F 57 FA C7 54 9E
 15 FA B0 1E F2 E2 09 5D 97 DD 96 33 64 52 0B 38
 B0 B2 22 52 82 13 69 2D A4 0E FB 07 AC E9 8E D5
 0A B6 8A 17 42 5E F4 F4 33 DD 52 95 7D 90 44 29
 04 68 1A 02 48 E1 A5 2E 1B C1 87 74 59 47 BA 85
 1A 14 4F 2A 58 F0 D5 E3 2C F0 3D 76 42 BC CD 6F
 92 3C 90 10 1E DE 20 AA 41 DA B2 95 0F 0C A5 36
 8F E8 D7 62 B8 69 AD 08 E4 2D A9 D2 4D 84 45 A0
 49 CB F2 06 FD 01 1D 22 3D E8 97 CB 2F 8F 60 2F
 FC D7 CE EA 1D B1 8E 0F 18 46 81 2C F7 81 DF 28
 C4 C2 1E 31 55 F8 17 F9 95 A9 9A 33 15 7A 33 F2
 6A B1 27 C0 34 6D E7 06 55 E7 6F D4 4A 5D 72 F8
 9C FC 97 E6 8B 5D 87 47 48 7D 36 D0 32 CE 35 AC
 78 C4 99 0A 74 4B DB 1D 99 F7 09 6A D9 D7 35 B3
 E5 06 A4 ED 22 FB 5D CD 43 E6 59 12 1D FE BE BA
 2A 65 3B 7C 6C B2 5A C4 04 BD 36 94 4A 30 03 77
 53 D6 74 6E A8 45 A9 0D 5A 8A 89 1D 88 AD 5C 94
 32 3F 76 9D 9D 82 9A 73 A6 39 BA 08 BF 79 82 F0
 36 C0 4B FF 50 05 6E 84 F2 EA E7 FA 21 42 E7 4F
 36 7D 27 57 6B A6 BD 12 CF CB 6B 42 E0 DA 7A D9
 89 E8 62 3C B5 89 7D FB 94 BE A7 F5 A1 B8 2A A7
 62 2C 40 67 E7 5C 0F F4 DF A3 83 83 E4 35 5C 37
 92 A0 A5 2A 67 23 8D 3B A8 13 D5 3B 5F 4B C1 81
 5A AA CA 3E 2F AE 67 BB 6B 74 A4 1F F5 A8 FA C1
 B8 B1 82 27 81 AC E9 15 08 09 71 07 C2 7F 83 0B
* End 4223863508 3726064260