* LTspice Encrypted File
* 
* This encrypted file has been supplied by a 3rd
* party vendor that does not wish to publicize
* the technology used to implement this library.
* 
* Permission is granted to use this file for
* simulations but not to reverse engineer its
* contents.
* 
* Begin:
 93 8E C7 F6 B2 9C AE 85 6E 94 99 65 50 00 D4 96
 45 02 9A 2B 36 FB D2 06 E0 B9 51 42 01 43 EB 6E
 FA 74 08 73 72 A4 DB 58 B2 40 00 E4 54 FE 42 EC
 AD 23 42 57 61 65 FD AB 96 E8 C2 A8 FD 88 19 3C
 06 4D 01 05 8D B4 CA DF EF 35 EC 95 DC 9F 65 BD
 64 9C 7A 00 C8 73 D0 22 E7 1D BC F0 3B 4D 9C FF
 06 EA BC E5 74 AD A2 52 9C 1B 61 66 4D 48 32 0A
 A8 12 9A FA 2D 03 71 98 98 6F 52 F2 7C 0E 16 CF
 3B 0D 44 0E 98 12 E3 30 D0 3A 30 F7 2D 49 FD FA
 E0 E3 FE CF D2 B6 E4 51 4D 1A B7 EE E1 4D BC F0
 38 08 DF 5E 2F B9 1B C9 ED C0 F6 D8 DC A4 02 0B
 82 52 5A E5 A7 B3 FD 06 60 20 DA B6 DD 25 76 94
 98 89 01 A2 05 30 FF 46 5F 40 AB 78 7B CC 29 3E
 06 4E 46 03 62 21 E0 F5 DE BF D7 56 B6 D7 7E 89
 D8 5A 9C 0E 15 60 46 90 D6 E7 A8 44 2C 54 74 07
 94 F7 C4 95 1C 64 F7 B2 E2 CC 67 1F 42 C7 7D 1C
 FC 00 2F 31 F8 1D A2 33 38 49 52 E6 80 72 FC BA
 C5 E1 1A B8 75 12 E2 CE 7B 1B C1 A8 1A F6 D2 65
 B5 4D C5 B1 A2 DD 97 CF F4 5C 74 D7 45 51 03 42
 EF 0F BA 42 16 45 EA F5 EA E3 24 D7 02 32 6A 23
 FB 44 D7 71 26 5C F9 A1 D1 D2 88 26 98 46 1A 32
 85 64 D8 51 CB 46 58 BB 8B EE 72 6D E2 02 67 8C
 42 B7 65 18 DA 1B A5 63 D2 CF B8 BC 7D A7 89 D7
 C4 C4 B4 C6 27 B3 00 AA 60 30 D3 DD 13 F8 C6 D1
 45 AA FF 34 7F 73 2B 76 CC 52 B8 F1 54 BA 1A 64
 D0 FB A3 06 20 A2 33 92 52 3E EE 1B 04 A5 E7 6D
 03 0F A2 6B 30 A0 07 C3 E5 0F 0F 5F 25 7D B5 32
 D2 1D 69 EE C7 80 D8 2D A2 7C 5D 2C 89 48 65 F4
 6E C0 61 51 64 4A 77 3C B4 17 34 C4 4E D8 C6 57
 08 31 F7 92 D8 AB 7D DB DB 13 6C F9 C1 9A 10 5F
 31 33 A9 BD 5A 6D 17 4C 29 E0 4C C3 3D 5D E8 93
 FF F3 7B 8F 68 38 9A F2 31 99 24 D4 BC 0D 68 C9
 3F 77 07 CE 0C 3D 18 F6 19 67 3A 20 12 BC 67 7C
 95 3E 78 5B C4 AD A5 D1 2D 62 1F 13 74 92 8C 14
 46 7D 7D 59 DF 2A 07 3D 54 06 57 F6 55 5E B2 DE
 D5 39 CB 88 BA ED 94 FF 1E EE 8D CA C7 EC E8 01
 99 BF 93 BE 06 DC 61 39 4D D8 11 2E 91 C3 F1 AF
 60 5C D3 4E 4E 84 27 75 31 E0 BE 10 8D FF 14 BC
 D8 28 BE 3D E7 19 23 C9 A3 A5 3A FF C4 78 BA 35
 CF 28 6C 30 EF 19 0B 39 DA C7 20 59 17 07 01 A7
 68 83 11 61 DA 0B 40 EE FA C6 9A 2D C3 B2 FA 0D
 49 E3 AF D2 0C DE 80 64 D4 F5 5B C1 1C 4B 4B CE
 F9 1D 54 21 DD FC 89 1E C4 7D A1 E2 C4 02 F8 49
 FE 1E 6E 9A C9 2F 66 E0 B6 5F D2 91 D0 E9 33 06
 1C 93 D1 2B FF 36 5B 2D A3 90 C4 9E E6 C6 CE DA
 4E BD FF B9 39 A9 C9 E6 98 6E E9 00 1A D1 62 9F
 DE 64 B5 D9 D1 A7 5D A2 F7 E8 14 57 59 94 7B 51
 F6 77 CE 7A C1 1A 94 35 04 01 B6 77 D2 36 B3 51
 A2 3D DB 44 16 F5 00 2E BB 40 53 A2 5E 11 ED 68
 15 84 B9 4C 12 6F F0 13 E0 AE 3D 1B F8 D1 19 10
 09 90 E7 E4 56 53 E6 4D 01 95 15 99 67 9B 5A 41
 A3 00 4D 4D 0B C9 35 21 EA 04 CC 9D A0 DB 50 7B
 DE 00 85 4C 6D C9 E8 AC 83 56 F9 9D 6F 30 02 0D
 43 4C 82 86 F3 63 BA 86 EA 56 4E 8E CC 4D FD 6E
 51 0B 47 D0 F9 96 A0 D6 D8 AF 20 21 0D 4B C4 73
 4D F3 27 FD 65 DF 52 10 1E 66 A7 FE 0F 61 56 E9
 B6 AE 4A B6 1A C3 AA 67 8B E0 F9 81 73 A9 3A 02
 39 0E 1A 3F 4B 2D 99 79 92 1D 1B 90 F2 9B 4B 24
 EC 0E E4 22 39 2F 9C 06 22 92 83 36 61 C2 51 98
 F3 13 23 69 AE 1F 74 CD 0B B6 3D DF BD 79 41 3A
 D6 11 F4 4E 38 C2 1D 70 60 D3 5C E5 47 31 DB 8D
 73 3E AC 90 B8 FE 94 F8 D1 FB EA 39 86 81 82 D1
 EA EC 87 6C A3 4C 1B 17 D0 DF 5A 53 B0 74 E6 50
 32 B3 04 FA 7F BA D2 52 5A DD D1 92 D9 DF 31 89
 EE 02 42 DA 1D 03 97 31 EA E4 6B 73 12 13 AA 30
 D3 75 FC F1 7E EB 18 70 95 A2 3C FD 80 7A 2D 9B
 24 9D 78 D8 A3 2A 73 9A 3A 6A 1D E3 8D 01 98 D9
 81 7E B5 7A 8E C1 BB 3C 5A 76 2F 10 FB B9 4C A1
 EC 19 46 1F 0A 89 5D 7F 94 92 E4 49 34 B4 4B 57
 01 E1 A2 1C E0 6C 95 81 6C 83 AF D0 68 F0 C9 1E
 33 4E FF 92 1C 2A 94 0A 70 21 FA 84 B3 58 7A AD
 F7 4E F5 D7 E3 50 B8 F6 E0 51 AF 42 A3 E0 0B 3E
 C9 79 8B 8D 0F 5F 3B F5 FA 46 6B 81 BB BE 6D EC
 2F BF 8A C3 38 42 EA A8 0D 96 98 4B 35 1A 1B AC
 61 B6 4B FA 10 C0 8B 13 D4 B9 53 EA F6 86 9E 40
 10 56 75 B0 33 29 7C C7 29 29 BB 79 6B E6 58 1C
 D5 8B 8F ED 08 92 C6 5C 9B 89 B2 02 5F 30 77 6A
 33 16 DF A8 46 DC 63 0F 6B FB BB 5D 33 45 4C E0
 06 B8 A5 F7 BF E8 33 B1 78 6B B3 0C 30 B4 3E 94
 92 AF 89 A1 B3 25 8B 13 41 2F 91 6F AC EB CE 14
 13 6B 3F DC 83 F3 03 02 C9 03 40 DF 38 04 5C 8F
 81 AD B2 F2 D2 EE 5D 22 FA A8 EC 20 D4 BF 18 9A
 28 67 5C 86 87 7E 50 EF D8 FD F7 42 2E 6F ED CA
 A7 E2 F2 5B EC 07 33 92 68 2B A5 73 43 69 B8 A5
 66 9A 1F D2 89 27 12 CC DA 73 FA FC EE A1 E9 AC
 4B 19 A4 5F 91 31 48 8B F4 2D 86 FA 33 BF E6 E2
 71 D7 14 59 59 C2 24 FE 75 1F 6C C8 DB 49 7D 8C
 FA 0A C4 9E 59 AF 55 19 1F 18 38 B2 FB 66 E0 8B
 01 B5 46 39 0F C8 AA FC 10 7F 07 62 05 BE 69 C4
 DB A5 98 AA B8 F1 8C 9F B2 BF AB FA 7F 5B 5D 44
 30 A0 B4 52 0F F8 8A 73 F0 12 4E 5C 25 B9 FC 9B
 04 01 18 7E 29 0A AE 4A 99 6C 9E A7 C5 CE CC 5B
 06 D9 AB A3 BD 70 BB DF 30 E4 30 BF F3 3B 66 81
 5F 47 08 7D 7A 11 AB AA F5 ED C3 5E C9 EF 1F 35
 D6 0C 12 60 E4 BE 74 F4 B6 8A 16 6C D4 30 33 82
 19 CC 3B C8 87 E2 9A C9 1A AF 4F F9 B9 89 93 33
 74 57 21 00 85 A8 BF B0 45 A3 30 21 9D 87 23 3A
 8B F2 13 1F A3 24 9E FA 5C F9 01 A4 8E 5D 9B D2
 C6 CF 15 93 66 B9 8A C2 EF 45 A5 AF 59 C7 64 5B
 55 AB 6E 4C 76 3A 06 98 CF B4 C3 3A 38 92 0F 5B
 2F 87 F7 84 62 EE 81 BB 76 6E 9E E1 EC 04 C3 A0
 DB 6D 93 6F F9 8B 51 FF E8 11 9A 1F 8E 62 D1 C4
 1C C6 AF 6B 26 57 2A BA C0 85 AE 4C 9A E7 D4 51
 91 C9 8E 6A CA 05 60 22 5F A9 F3 75 5D 2B B6 78
 0E 1A E0 B3 EA B5 10 71 B7 97 FD CF 04 0F 40 77
 8D 5F 12 CB 4B 95 04 B6 E3 2B 68 FB 86 00 3F B8
 65 DE BF CD 35 D5 6F 37 FF E7 66 45 71 33 75 72
 67 4D C4 56 2B 55 07 D5 DB 75 AD 67 6A 6F 72 62
 44 84 3B 01 4E CB C0 A5 02 AD F8 C8 CF 14 3F F1
 B1 CF 27 D9 26 81 B7 9C 0C 8C 59 54 94 AD E6 CE
 D3 C5 C5 7D F0 93 7C 2C 29 FD 91 77 9B 4C B0 C1
 51 50 32 CF D3 DC 94 77 A1 80 9A BA AA 97 CA E3
 C0 0D 94 98 23 F9 FE A0 9B 58 0F 9B F4 6F 30 3C
 3F 03 EB 3B F8 75 1C 49 D8 51 B5 0D D8 4E 9D 99
 91 F7 03 0C E8 3F 55 96 31 02 16 0D 91 35 72 C7
 93 FC 2C 74 E1 40 CC A9 6A 26 7A F9 C7 B5 0A 12
 71 A7 34 75 3F 1D 43 83 5B FD 10 04 06 38 77 BF
 A9 B3 9D 0B 53 9F 67 97 EB 3B F8 27 DA 18 26 C6
 35 E9 12 A5 A8 7D 54 B5 B0 C3 98 5A E7 19 C8 D5
 76 0F 6B 2D C6 E5 8B B6 25 8F 29 84 4B B9 5A 76
 F0 6E 94 CB 40 06 3A 2B 14 89 73 53 6F F3 FD 3E
 DC F2 43 5A D2 97 9F 2E 34 A3 36 45 58 90 4F C4
 68 D2 69 D6 4F DF 43 5C 10 4B 6D 8C 70 0C 51 37
 B0 2E 5A F1 BB C8 2A 10 A4 5A 24 08 F0 CF A0 1F
 F4 76 AC FE A0 9E AE EF B2 81 C8 90 0D 48 F6 BC
 56 B8 A3 12 5D EB C7 4B 4E 74 56 6E C4 26 9C 6F
 89 3D 3D 55 22 FC F1 BD 0E 99 27 C3 EB 37 88 08
 E6 94 E3 EC 34 AC 6E B9 F2 CD DE 58 AF EB 38 99
 84 01 EE 17 BD 55 04 EC 3D 7C BF CE 06 1B AA 2E
 89 3F E6 BB E1 0F 71 9C DF 32 CD 92 8A 6F 4A FB
 E7 09 7A 35 B8 DE EC 79 6E 73 5C 68 A5 D7 CF F9
 97 1F 7B 42 C2 79 68 AB BF A5 DE 23 0C F8 07 E5
 C2 A7 A9 30 E7 8B CA DF 35 6C 96 45 36 01 B8 AF
 D8 1A 7A D3 4A 49 C9 CE 45 7F B3 01 5A B5 36 2A
 E3 AF 17 D8 E7 EC 6D 07 56 FE 35 46 E0 6A 00 BC
 4D EA AD C9 15 0D 74 35 29 87 ED F0 81 4D A3 AE
 75 D8 3F AB AB 86 9E 16 1C 9C BF 4A 98 04 32 59
 DB 05 A9 9D 5C 0A BA 75 B0 36 00 2C DB 06 35 EF
 C7 1B E9 09 F2 DA 34 8F 2B 6F 01 60 C7 94 4A 5F
 EB A1 5A 07 F1 AA 58 0A DC C5 45 9B D2 5D 57 80
 BC EA 3D 64 2F ED B2 9A 15 4B 1A 83 8E 8B 37 84
 93 53 05 28 18 EF 42 5A 8D D0 9A EE EA DE 0D A1
 A4 50 D5 5C 52 9E 38 83 89 EC BC 89 7D 6A A4 DD
 E5 64 3E 79 C5 DD A0 DD D5 AD E7 3F CC 63 C1 29
 B2 3D CD D0 26 B9 A9 6A 21 8C 63 3A 6F 91 DF 72
 FC 33 E8 4E BA 2B 21 C0 E2 AC FD 34 B7 02 11 A1
 DA 99 7C E7 14 2B 8C 86 8B 85 C4 AC E4 1C 31 34
 FE 60 74 8A 25 3F 95 BD 25 DA 79 7E B8 9C 65 F4
 F4 F0 DB 31 A5 99 2F 3D B0 86 3C 02 B6 38 04 DF
 1D 04 B3 7C CD 5B DE AB DA 45 84 11 53 F4 03 44
 14 F0 A7 3A 5B 63 3B 6A 9F C8 4C FC 8B CA F8 6F
 43 23 80 EC DE B8 7F F0 36 7F AA EE DF 31 18 FD
 D5 33 FD 42 C9 82 C3 11 D0 EE A1 5C 59 E6 75 97
 FB 0F ED 19 AC 15 99 3C 29 95 45 5F 5F FB 16 C7
 0E 72 37 2E 8D 76 FC 0D C7 F8 21 05 CB 0E 29 8A
 A4 FC EC 30 A6 D8 59 D1 DD 25 68 86 7B B7 88 E7
 4E 14 D5 F4 C3 DE F2 DF 71 BA AF 5C 4F 5E 0A 5E
 D4 CD 84 D6 86 E0 55 68 43 37 43 20 1B DC 2B B6
 02 8E 09 33 27 84 6B 91 CC 5E 0A 81 F2 96 52 BC
 CA 28 E3 5F 90 34 01 43 A1 9C 0E 9C 4E E5 4C 4A
 69 70 C8 E1 0A 03 56 C1 06 E9 E5 BB FC 02 6B 71
 D1 C7 03 A5 82 0C FA B9 8A 04 66 DF 4F 96 77 35
 7E 99 5E 4B DF 48 65 77 6E 65 18 B2 48 7D 62 23
 F1 DE 82 3B 08 27 31 3F BF C2 90 27 D7 2E 95 E0
 82 94 C7 FE 59 7E A3 DF 82 96 4E BA 2C C5 0F CC
 14 60 6F 77 65 BC 67 F2 06 66 74 AB 2D 4E A5 45
 CF B4 2F 11 25 AA 1B 00 29 17 05 70 2A 81 48 36
 F6 DB 58 3E F5 13 8D FB 32 FB F3 A3 AA 5E 73 8D
 07 AB 67 DA 1F 54 EA D3 78 C6 F7 8E AA 8A BB 1A
 DA AA B6 FC 88 F2 FF 6F 90 02 C5 03 E7 88 B6 64
 01 44 83 1B 50 12 F6 BE 74 26 F1 9A A5 9E F4 7C
 C4 E5 74 95 4B 47 E6 F1 8D F8 DC A0 E0 D9 21 5A
 26 82 64 EC 36 17 CA 3F 6D C3 CE BA 28 08 23 DC
 B8 51 19 C6 C6 AB 33 D4 E9 A3 4C EA 85 9E 58 B9
 D2 73 02 85 46 B8 03 B7 F5 A5 88 74 25 AA BA AB
 3D E3 F0 E5 0F B7 93 23 EA 40 9D 97 79 7A DA F6
 F4 67 6A A6 AC D0 A4 DA 51 C9 AC 9F EB 18 E3 BB
 00 4F C6 62 F7 C1 EB E8 16 DC 06 16 24 69 EB 2C
 E6 35 61 24 4B 18 E5 61 E8 B4 C1 E8 DC 7B 14 2C
 E4 D0 F7 50 CE 38 34 1B D4 94 0B 52 80 A8 D0 FD
 AE 32 20 1F C4 98 C3 4B 3C 5C 28 F1 31 56 A4 91
 89 25 35 53 FF EA E3 D4 62 30 37 5B B0 F7 E2 C1
 FC 06 F6 05 DC FC 8E 8E 5D FD 3C 1D 09 7E 9B 4D
 D4 05 E9 BB A9 CB DD 7A 42 53 01 44 ED BF 86 DD
 DF 74 BB 48 66 1A 61 7D F9 41 EE ED CB 9E 15 63
 50 3F D4 7E F3 01 53 81 0F F2 7F CB B2 05 9C 39
 27 16 7B 35 97 99 F3 2B B7 AE DB 11 5A 96 F2 CD
 4B EC 0F 18 E3 E3 48 8E 43 AB CD F1 93 51 68 47
 CF E2 04 B7 B6 1A 2B D6 2C B0 7B 50 03 E4 64 8A
 4A 12 7E D4 30 13 F9 35 3F FF 8A 1B 17 21 07 61
 6B AF AC BB 2D 87 EF 84 EF FE AC 47 0A 64 58 7A
 31 D6 DB 69 03 7A D0 F2 98 D6 67 FF B4 13 EF 37
 91 BC 5E 2C 55 C8 BA 70 9A 8F 2B 8D F4 8A D1 EC
 EC 82 65 59 7E BF DF C8 6E A1 3B 5E AF C3 13 0C
 E4 71 08 40 96 82 9F 08 A5 74 25 23 6E EA AA 8E
 F1 E9 C3 F2 D4 72 AF 6B 98 66 88 94 58 89 9A 43
 BA CF D0 0B 11 44 F8 D9 32 8E 26 5F 32 F0 B7 F9
 19 F5 A3 FA 2B BE 98 8A 3D 12 0B 3E 43 EE DE 37
 FC FF E3 4F B1 C9 83 D7 2A F2 D8 4A F4 A7 73 D2
 F5 4D 18 60 37 3B 27 FD A2 44 6C F2 16 0D AF 5A
 08 87 10 32 E5 17 B3 80 1E 30 92 5E EC D6 7A E2
 73 20 09 0A A4 49 09 37 EA 9A D6 FA 05 92 5F EC
 32 46 ED A4 6F C7 4E 30 0F 13 A1 D1 02 FA 15 5B
 08 1F AD DA 8C 71 DC 9A B2 FE A8 AB 23 66 59 68
 3A 8B 28 E9 76 FC 9C 89 B6 D5 E3 3F E2 CB E9 51
 D2 B0 AA 18 4C 53 1D 0F 45 0F 81 12 F3 33 83 FC
 72 9B 5E E9 11 5E CA CD 3C 05 64 51 8A 4B BB F7
 83 AB 01 FB DC A0 BF FD 30 39 BC B3 80 30 8C E1
 56 84 FF 9B 8F F1 AF 81 8D 33 05 80 1A 5B 63 C3
 58 28 93 97 F9 0F 85 57 96 73 5E FC 9C B9 71 84
 1C 84 88 D3 CD 5E 9F 07 91 B7 59 A6 C2 78 AF B2
 F9 97 30 6F 97 82 A1 9C E4 0D 27 EE 3C D4 FD 6F
 97 04 35 2A 0D 33 36 7B CD 96 74 F2 04 94 6A B6
 5A 41 D9 4D C1 40 D2 76 CF 8E 52 72 1E 08 07 75
 04 48 82 3A 73 16 EB 11 A5 FF C0 DA 74 57 94 23
 4E C4 01 BD D8 F9 85 5A 7F 83 F3 BD AF E3 A9 E3
 A1 61 D9 EC 5E 69 09 83 D6 D8 6A 8A 0D C3 2F C7
 9C 91 F2 16 2A 24 03 81 D8 9B 5C 45 3A 0C 9A EE
 64 48 80 B2 DA F2 44 25 49 E9 C0 17 8F 9B 15 8C
 28 DC 46 44 98 FA 25 1B 72 1E A0 35 D7 CA 39 E0
 35 5D EF 13 AB D3 19 B9 DF 99 29 AF 25 18 A2 61
 FF A6 63 30 1A 60 9B E1 1E 13 E2 04 AF A0 E1 AE
 B1 F8 C0 A0 FA AA B5 93 17 9B 83 83 9C 64 30 A7
 D4 6B 41 35 E0 80 31 72 73 AE F0 CA EC B1 0B 9C
 98 12 10 86 EC EE 81 33 FD 63 B6 BE 12 87 BE 02
 37 03 0B 6C 08 90 2A 76 FE 5A A7 B8 F3 3B E7 7F
 6F 9E 8B 26 C5 CE B7 2A 01 F5 CC 83 EA 37 08 F6
 3C E8 80 8E D9 3F EA DE C9 3A 04 0A 01 7C AF 80
 65 C8 B5 39 E0 35 FB BE 27 44 3C B1 54 75 69 CB
 8A C2 24 06 60 EA DF 0D F3 CB 2F 67 86 6B 3D 9F
 60 41 25 EA 8A A7 F5 12 AB 5C B7 BA 04 4B 05 77
 96 DB C8 31 FC 98 6E B2 13 9A C5 17 57 CD 55 B0
 CA 7A F8 10 BC A7 CA 09 86 99 C3 F1 FF BD 48 75
 DC 2E F6 B1 60 7F 72 26 93 6A 76 ED F2 64 F0 46
 6E AE CB C6 77 8F 69 66 2D 36 E1 06 CF F8 1C 35
 C6 B4 C8 F1 58 96 24 0A 29 09 88 5D AC 61 78 31
 54 F2 79 9B 58 C5 AF 5E 08 C6 A2 4D 5F 36 92 A6
 94 4D 9F 6C 04 44 2F E6 39 93 F2 8D 9B AA 65 11
 78 17 AB 3D 79 76 17 CC 86 4C E6 01 3E AD E0 A4
 22 3A 47 EA B0 CC 19 71 7E 21 F6 9B 5C 14 DC FD
 41 CB CA F2 1A 80 09 8C 13 7C 89 D4 1C 90 1D 0D
 7D 68 31 AE FD C4 E8 08 FC D8 82 7A 41 13 4A 1D
 10 D2 FC 0B B4 0E 37 A8 95 36 30 58 9F 8F 84 3B
 57 45 D3 53 A7 D0 33 1C 10 DC 8A E9 62 4C CD A7
 C5 22 0D 72 FC A9 2F D6 21 FB 62 C0 B2 21 0D 51
 89 8B CB CE 65 96 4F 44 DE 21 23 D9 50 7B A3 CF
 68 2E 8D 90 E4 23 DB B2 37 79 20 E9 F1 94 77 62
 E4 1D 24 B0 D9 41 48 29 F7 E2 BA 35 50 B3 2B 40
 43 AD 0E 66 DA C6 9C 84 2E 27 8F FD 8D 42 2E 90
 4F E8 E2 20 08 9F 56 AA 13 6E D3 84 6D B6 6F EA
 D7 99 60 2F 73 3C 2B C2 57 85 54 AE 24 D0 34 6D
 B9 81 6A CF 98 B5 A1 B3 7E 8B 31 AE 97 B3 9F F6
 45 51 2B C3 B9 8E C4 40 66 A1 8A 0A C9 A9 DB 7A
 E4 33 C6 62 14 5C 0D E6 11 81 4B F7 8A 01 E6 5A
 81 79 1D ED DF B5 56 1A 5C 3D F8 BF 74 EF CC B6
 D8 10 04 43 DF 21 FE EE 92 71 CE C6 D6 C7 D8 EB
 C2 1C D6 BC 4A 1B A6 92 99 C3 E7 49 B4 DE 3E 73
 47 1E D4 96 9A 14 A1 9A A9 99 35 39 63 1B B0 F6
 F5 72 1D B1 63 29 FF 82 11 87 DD 83 AA F8 BD 0D
 63 3F D5 8F A8 18 57 4E 20 47 BE 94 64 8A 44 6C
 5E AF A2 C8 69 28 A7 49 4A 2B 90 3A 5D B9 9B D1
 2F E6 8A AF 43 83 77 CC CC E0 34 6E B7 74 31 93
 7B 06 F6 6B 91 C7 6D 1D 54 E2 AB 56 53 13 E6 2C
 79 A7 3A 64 F1 9A 82 7B D6 D2 A6 D8 47 7D 8A FD
 BC 30 F5 9A 4F AC 97 76 A5 33 93 78 72 D1 34 29
 A3 CE 7E 2E 11 30 8A FA 70 58 B4 71 C2 2A E9 6D
 BF 8B CA 33 2A 19 1D 06 F8 B5 49 F1 C4 F9 A7 0B
 6D 1E 3D 57 CC 7E 5F C8 0E 25 B9 9E FE 9D EC 35
 6C 4A 13 0A E9 85 73 D9 08 CD 54 8A B0 41 16 4F
 13 F0 AB CB B7 5F D4 B3 71 96 14 79 82 88 14 AC
 DF 02 9E 8B 5D 64 28 CB 32 7E ED BE 10 90 63 12
 A9 14 51 8A 2D B5 70 01 E4 B7 F2 16 E6 B4 D4 C6
 FE 8C 60 4A 08 FB D6 03 60 DC A8 3F 8A 06 93 EF
 76 E0 9F 45 D6 0A C4 72 1E C9 7F 8E C2 7B 65 51
 8D 8F 85 59 BE E0 4D B1 D5 FA 03 8E 01 EE 20 FE
 1F 14 03 0C 9B 82 4F B7 62 7C 01 16 41 9C C2 A4
 9A 2B D3 FE C1 1A 2E 15 B1 0C 23 CB 8E 1E 39 64
 7E AD 33 07 57 6E 43 BD C4 A8 C8 91 83 E4 BB E5
 46 25 B8 18 61 EA 95 05 FC 14 74 08 0B 9C 81 87
 4B B2 B2 30 71 CE 30 DA DE 48 DA 56 E7 AD 18 56
 5F 48 07 A7 25 6E 5A FA C9 C4 27 06 42 B1 21 D5
 71 8E 0F B9 01 8A 75 29 9D 15 1D 13 FE 7C 32 CD
 ED 88 8C E7 E5 62 2B F1 60 24 42 62 E3 93 FD 20
 B1 46 BF C2 C0 FD A6 69 47 AB EC F7 0B 30 9D 72
 8D A3 57 98 9C 52 83 72 AF 75 A7 EB FC 3E 45 C5
 82 F0 97 64 F1 D1 AC 6E E1 9A AD FC C1 AA 94 F6
 EC 7C C2 59 E4 2F D2 F3 0C 88 14 0B 73 0B C7 85
 44 06 CE 35 F1 62 E2 53 77 55 F9 AE 2A 79 4D F1
 3A 92 BD F1 D5 84 F0 24 0C C5 77 CF B6 33 60 91
 94 17 48 63 4F 1F 07 53 E4 AD F5 96 6A 8D 0C B4
 88 1E 2E 76 97 4A 97 14 20 7C 68 1C 46 C9 6B 61
 AB 5B 75 26 3D D9 D0 2F A2 8E 03 97 0A 8D 8B F9
 95 0C 55 0F 73 23 50 85 CC 07 95 C4 33 24 13 43
 28 C5 24 EF BB 32 63 51 CE 75 29 60 28 22 D9 55
 7C 32 84 04 6E 80 96 F9 E4 93 5D FE 54 86 E3 DB
 3F 40 ED 61 97 35 81 22 B0 D3 86 2A 5A AC 31 C7
 25 42 3A 95 68 85 4B 7C 31 1B 3E 39 A9 6D D7 0A
 16 76 B9 1B 5C 42 1C E5 FE F7 E5 5A 06 B3 A6 84
 DF 19 76 A7 B5 DD A4 7C 49 EA D0 5A 19 22 28 D1
 0B 3F 2E B5 8B 97 3C 49 85 AF 6C 13 90 5D 19 15
 DB 71 8D 27 04 0A 7C 3D 36 5A 28 AA AA DE 41 03
 25 99 94 35 46 45 F6 8E 44 80 4B 8C AD 40 50 7F
 F5 2E D7 60 16 64 0A CA D8 C0 9A 00 EB C9 C8 DC
 9C 34 08 E1 4F B9 6F 1E C3 9E 76 AC F8 B8 F6 34
 84 6E BB BB 7A 52 DC 70 D0 AE 3B DC 1F AB B7 C7
 86 10 B4 62 73 3C 12 19 0B C5 01 01 A1 1C 7B D7
 F7 F5 56 AE E7 34 C0 E9 B8 F5 7E 2D 64 8B F7 7D
 61 9C 4A 67 67 BC 13 CA 89 F6 FB E4 14 7E 7E 7B
 C1 F4 90 EE 68 37 9D C0 BD E3 3A 30 2A 85 6A C0
 39 D8 11 36 12 1E EB 4A D2 20 0E 5D F8 D3 61 0A
 14 C7 55 D7 73 60 2C 6F 51 E8 CD A0 BB 78 53 D5
 B8 B6 1B E2 67 67 E2 33 C0 51 F7 22 A4 B7 43 BB
 1A 01 04 1A 5B 8D 1D 14 AF 64 8E 09 06 6E BD 08
 FE 81 8E EF 17 33 F8 7F 9A 6B B0 F3 BD C2 52 DC
 CD BC D1 19 ED E7 D8 81 25 FC 69 B9 49 D4 1F 4F
 0D 62 A8 21 CE A8 5F 32 AF BE 62 05 A6 E3 49 C3
 15 30 0D F2 32 95 B1 A3 25 65 DD 26 E1 FA 68 47
 E2 F8 3B 57 78 82 88 DF 41 F4 AB 91 77 BB 12 8C
 08 D0 DF 9D 27 41 69 29 12 C2 AF 7A 00 A3 F7 77
 4D 71 DA 9C CB 73 19 4B 8B C3 35 F8 40 1D CC 85
 1D 56 87 AE DD 12 F2 BF C9 9D DE 14 D5 5B 99 E1
 CD 6A E7 AC 41 8E ED 4F 2A C1 80 04 29 07 AA A3
 F4 F5 96 81 28 69 00 F4 A1 B0 5E 39 19 36 C0 88
 15 23 15 BA 39 FD 63 8E FB 64 C9 75 78 FE 39 6A
 5E D8 84 3D 98 93 EA CE E1 94 D0 74 59 A2 D6 38
 3E 83 DD 04 14 3F BE AC B0 52 47 F4 C7 FA EA 5B
 4D F0 03 B8 EB 43 E0 4F C7 A0 EF 4D DA 8D 98 33
 63 14 48 79 5E AA 1C B0 60 ED 7B 01 0C F7 E1 2F
 F7 64 A4 E4 CE CF 05 1C A0 DD 78 E1 FD 9D 37 CE
 C0 54 51 04 69 ED CD 9A 4D C6 10 3F 8F 99 E7 C5
 0E FC FF 5B DE 76 41 6A A1 CC B1 60 90 D0 60 EA
 B5 94 42 03 16 DE B0 08 62 DF 29 BD 71 52 43 EA
 C9 88 F4 80 A6 19 C2 20 6C 0D 79 3E 13 A0 51 AF
 53 47 78 9A AE 5E 4E 06 4C CD 7D C8 11 C6 A2 E2
 C0 C0 70 0C BC 31 03 35 FC E0 8C 5D 9A C0 57 2C
 3A 85 2A D9 56 AF B8 50 6C A7 76 12 1A CF 0E 11
 BF 8B 1C BF 72 C8 CD 7F C3 81 01 E3 A8 C5 38 24
 DE 58 19 E8 3A 59 C9 86 68 9F 0C 77 C9 47 AC 47
 CB 85 5D 04 0B 82 C3 F2 FE E4 E4 F3 67 78 3C F3
 61 FB 76 6A E8 A9 D9 69 5C C2 D6 96 68 E0 8C 53
 E0 F4 5E 94 CB 92 F3 E9 C8 75 19 5F B7 14 88 05
 C9 8C 73 53 7C 3F 31 12 FB 6F DF 64 B1 03 EF 13
 D7 11 DF D1 70 DA 03 94 3B 64 6F 6C DF 4D 28 4B
 DC 02 99 A2 C9 95 42 B4 F0 72 17 63 A4 20 48 BA
 C8 EB 1F D7 A1 C3 87 4B D3 12 60 87 34 A2 27 6B
 CC FF DF CF B5 12 05 F6 D5 72 01 FB D1 E4 73 10
 B5 CA 67 4E 2A D5 28 C5 DC BD 7C 84 B4 C3 A9 D4
 9C C0 67 DE 21 31 D5 4F 81 A6 7D FA BF A1 35 A3
 86 D6 19 16 93 B1 78 82 35 86 0C FC C8 F1 36 57
 3D B1 8F ED 79 23 06 1D 4F F3 D9 FC 72 B2 DD 7A
 E1 04 23 E4 B5 F5 52 2F 75 2D A2 F8 40 FA 40 7F
 3D EC 02 95 95 E4 BC 83 E5 ED 43 E2 E5 C6 3C 60
 0A C6 87 3F EF 0F 2B 4F 08 CB F2 5A EC 54 95 88
 62 B3 0A 87 30 E7 1E CC 10 54 F1 7B 50 AD C1 F7
 34 63 9A 6A D2 50 D9 88 3B 97 D8 37 CA EC 93 30
 FC 19 12 24 08 8B A9 A0 E5 0D A9 7C D3 F7 02 D9
 F4 95 63 1E DC 92 C6 FB 8C DC B6 C4 84 2E 78 52
 5D ED FB C6 6E EB F3 54 50 12 E8 3D E3 B2 22 2D
 44 C3 EA 48 C5 06 7B AE E2 3E 51 37 F3 71 FE 19
 2C 6C 2B 03 D6 3E 84 1D 2A 9F FB 5B FB CD 41 47
 F3 F3 EC 28 5E 6E A7 40 7F E8 11 F4 2B 8B 3E 54
 FA 17 DF C4 71 5C 68 2F 07 C5 A7 6C 69 A6 38 B7
 A4 72 5C 26 AE 92 4A ED 45 CB 28 F6 69 C4 4A EB
 CC 3A C8 02 E2 AC 91 BC A2 72 DC 3E F3 C1 9C 97
 11 61 CC CE 32 4B 18 34 31 45 6D A6 41 AB E6 AF
 F1 FF C6 DF 54 66 0F 7D C6 73 30 1E 50 01 44 10
 DD 8E CF A0 95 4A CC CF 6C B5 C7 B8 AC 38 95 AB
 84 0A A8 1D 0D 84 9E 87 4C 25 B1 F7 28 01 F5 DD
 25 04 78 76 2D F9 20 3A 4F E8 83 94 60 2E BD 55
 B9 A8 25 0B 9C 31 86 47 DA 8C CD 42 9B EB 7C D5
 51 21 A1 C9 67 35 AC 1C 71 5A D6 C9 1E 0D A7 E7
 DD 7A B5 43 8F 22 82 21 F7 AC 7D E3 F2 2D 41 AD
 9A D6 20 46 6C 98 02 C1 93 F3 77 06 04 A1 81 B1
 5E 8B C9 8A 10 5C 1A 0E 91 F8 CD 89 C9 12 48 D6
 F5 48 3B 1E 33 E4 99 AD 8D 43 D5 34 42 37 40 03
 B4 4E A0 45 2B 08 26 9C E3 5C 31 81 F4 4A 15 B7
 61 A4 44 83 9C 70 AF B0 DA F5 BF F7 BB 22 FC D9
 6C 32 59 B7 A3 ED 0F BD 86 3B F5 AB 39 0D 53 C2
 16 84 D0 EE E7 8D 73 F7 41 37 65 16 61 99 18 01
 02 FD 7C 5E 52 93 E6 AF A7 9B 2F BE 3E 68 0E 38
 89 1E EF 46 D4 85 3B AD 1A 46 59 E5 68 2E EE 79
 4D 35 EE 6D 47 DA 82 9A 48 97 CB 2C 9D 07 C1 A0
 77 CB 78 69 96 25 97 47 63 A4 B7 7A 8E 6D 92 3B
 74 05 4E 4E 0D 11 4B 5E
* End 3314460598 1620922404