* LTspice Encrypted File
* 
* This encrypted file has been supplied by a 3rd
* party vendor that does not wish to publicize
* the technology used to implement this library.
* 
* Permission is granted to use this file for
* simulations but not to reverse engineer its
* contents.
* 
* Begin:
 E1 DA 1E BC 5C BF 6C 0E CC 78 96 D1 BA D1 7D DA
 AC 83 5E ED 54 CD EF 82 0B 3A A5 68 F9 97 55 BE
 E9 6A 3C 38 01 0F 3E B3 FE 68 6B EA AB FB 05 EC
 3A 9E 8F B8 A1 CA 16 A8 D6 38 AD 07 26 04 04 3A
 E9 74 0D FB 99 B5 3C CB D4 7F A2 0A DE 02 08 6E
 FF 86 29 73 13 8B 3B 32 57 4E 60 2E 81 03 49 74
 AB 4E F3 39 F3 E5 96 3A DE E4 25 12 BE D4 B6 03
 73 8A 7F D7 8A 72 E0 04 7B A2 F4 A5 DD D9 66 5C
 0A D8 56 87 F9 83 B3 EE 9F 9D 3A 57 8B C9 5D 04
 13 18 41 3E EC D3 0D 90 DB 1A 25 36 A6 4A 40 C1
 D0 12 B3 64 A6 24 FB 9A 8A 5F DB C5 CF 65 FD 4C
 DD CC 78 7A 1E B6 87 5D CE BC 0F F5 BE 92 E7 E2
 7A C1 37 A5 37 F5 14 3A 87 3F 8C C2 9F BC 55 EE
 F5 CA 99 7E EA C8 0F 0D BC CA F3 F5 D9 D0 5D BF
 F9 E7 B8 59 22 00 A9 85 C1 3C 26 C3 3B 01 10 ED
 1C CF F2 BB AB 4E BA 9E 68 57 F8 34 05 7D 8D 13
 3D 00 BF 93 29 1A 57 91 3C CE 7C EB 80 9C 12 9E
 9A D4 D8 CF 17 31 7F 66 D3 74 63 67 60 1F 91 6D
 3F F0 91 77 63 8B 5A 0A 33 32 FD 81 4D 63 68 28
 B2 B0 1C 3A 09 66 24 71 5F B2 F3 AF 98 6A 48 6F
 04 70 90 89 FD 58 B1 C2 6E CC 99 9E 03 3B 1A 52
 7B 5A CD 73 C5 FF A8 06 8A 65 B3 ED 62 A8 75 60
 F8 77 DA 34 60 0C 9D 4F 14 0B EB 59 BC D9 CC 65
 ED 2D 0C ED 76 9D D0 09 82 5C 33 97 7C 83 42 47
 2F 97 4C C3 A9 13 D8 8B 7D 5B B8 EF 8C D2 89 3A
 71 62 EA DA 89 F1 DC CF 77 72 4C 4F 23 1A 1A 90
 A0 29 23 A9 5F D4 55 11 D8 2F 09 CF D8 83 B0 30
 82 9C A1 F8 C6 09 4C FD 23 DE 34 3F 04 21 7A FD
 DD 14 FB 1F B2 C5 2B 5B 74 60 E5 BA BB 82 DB B6
 BC 51 6C 21 15 59 32 A5 65 86 33 C2 82 52 13 12
 58 75 BB ED 2F 81 3A 5A 0E FC 3E 55 1A 4B C6 5A
 AC BC 42 FF 76 EB 88 90 9F 98 FA 7E D7 30 A2 C0
 BF 12 C8 42 DD 89 C6 2B 7B 36 99 59 C2 70 A2 1B
 79 A7 83 80 7D 8C 0C C3 9C 31 D5 C1 95 70 6F 36
 69 67 DD E8 29 6A 4A 9D 6D CC 3E 50 33 83 EA 68
 F6 4A 83 54 E2 6E 4F 1C 1F 2B E8 53 41 43 09 E9
 D7 2E 64 39 F2 D1 7A 12 3B 97 9B CB A0 5A 07 9B
 C5 12 CF FD 39 8B 1B 32 10 7C 06 F2 BC EE 4E FD
 30 AD 0D D2 4D CB 9A FD 87 33 E9 66 8D 2E 94 CE
 30 A2 5B 5F AF 89 C3 39 0E 07 85 84 71 D6 38 36
 8E 7F 0D 13 6A B2 9E 8D 4E 68 0E 3D 96 E9 30 66
 59 BE 51 6A E9 57 DF 60 1A 0F 57 36 FC B4 36 47
 14 38 84 35 97 DE 76 5A 86 CA C3 2D 9B 33 08 04
 9B CE 57 63 6D 6D A0 DE ED 14 72 8B 7A 73 50 48
 34 A5 A7 E6 B9 A9 8B BE 5B 03 83 79 BD 9C CC 15
 D3 06 AC 36 10 0C AF F5 3A 46 43 84 9C E5 4E C6
 13 75 3F 0E CC 95 F4 62 F1 1C E0 B7 8F 2C 5D 44
 AE 69 25 28 C0 94 D1 13 7D 8D AA C8 DF 90 D0 1D
 B4 42 7B 7B 87 DC A8 06 DA E0 7D 0D 28 A7 79 15
 31 54 05 E1 C4 3E B8 9C B6 79 17 A4 C2 62 5C A1
 43 0D 1C 11 90 80 B2 69 AD D8 E1 9F 6F 97 05 68
 3A 78 CF BD 47 1F A8 AF 6E E0 0C 8B 7F 0A CF B6
 57 4E A3 46 0E D2 EE 66 AD 23 F0 66 F7 D4 1D 21
 0B 0A 5D A0 42 8B 50 23 12 3D 6C A2 06 2F B1 3D
 FB 88 10 C8 88 34 77 54 8E 02 3D 96 52 00 D6 A0
 17 DF 37 AB FD 45 33 1D 4F 32 FA 34 74 C5 34 18
 4B 73 14 66 35 32 BF 18 69 2D D5 13 38 18 27 3C
 AD 36 C9 C4 C0 69 B4 8D AB 02 5C AA 6D DF 6C 65
 CB BC C6 32 66 B2 42 45 A2 DE 2D 2D 12 47 1A 0F
 31 0F B2 64 60 07 51 CA 05 94 59 19 65 85 12 FE
 52 B6 A7 6A B2 7A CE 9A D4 8D A8 E6 11 BE 44 22
 B7 05 3D DD 53 90 28 40 C6 BE 6F 79 55 61 C7 01
 CD F5 31 CD DA 0F B3 D8 50 2C 25 F0 EC 3A 10 A1
 3C 8A 9C 0B 71 A2 08 5E C0 2C C7 4B 5A F2 0F 94
 AD C9 93 FC 99 48 03 92 5D 96 04 A1 CB 52 BF 32
 A6 45 22 97 5B 57 93 97 3E E2 9B 92 0D C4 13 78
 7E 3B 08 5B 31 A0 DD F2 CC 2C 11 39 BA CA 78 1D
 08 0E 46 03 9B F0 72 A7 69 8B 34 9D 4C CD B3 66
 96 63 71 0D 35 87 69 F5 E3 CE 06 84 21 A1 A3 36
 21 3F F6 67 F7 C5 79 90 02 8B 75 50 21 57 E0 AD
 A4 E0 CC 2F 37 41 1A CF DA D2 88 41 4A DA D8 9E
 AC 8E B5 F0 14 34 72 C6 28 28 28 8C 69 AE 0E 78
 87 F3 41 08 D0 C8 64 7C 37 27 E1 DF 9B B5 D9 A2
 41 65 39 7D 93 2D 26 4B CE 5D F5 6B 5C 85 4F A5
 55 7A C2 7E B4 E8 7C B1 06 6C F0 05 59 47 E8 90
 ED A3 64 BB 29 04 1E C2 15 0A DF BF 9A 91 E0 98
 CB B7 92 81 60 38 EB 87 E6 10 7A 36 B4 A5 45 4E
 AE 90 92 7D A3 F7 DB DE 75 CA AD 63 10 D2 AA BB
 34 14 78 14 CB BB 1B 8B 59 9F 49 4C 94 58 5F 79
 39 68 43 8F FE 6C C9 B9 B4 96 E2 6D 62 DC 00 65
 93 7E 49 11 BD BB 96 A3 A9 E8 05 73 4A E3 F2 62
 4E 9E D7 36 CB C0 C6 2C A5 AE 0A A0 09 71 30 BD
 EB 4E 6C 72 F6 3C FE 0E A9 D0 F4 30 86 06 27 5B
 22 1C E3 B8 F9 5E 0E 9A 3E 94 C0 40 87 47 37 CC
 C7 2B B7 EB 80 02 F1 77 C1 7A 41 AB 1E B3 6F 06
 56 BB 39 A3 69 2E 12 51 33 89 3C 00 7F AC 64 F0
 DB 1B 89 9B 57 13 21 C0 A0 11 11 4C 05 8C E8 9D
 10 D7 A6 43 85 5D D3 EC CC DA E5 DF 3E 67 2D BB
 3B B9 7B B7 08 D3 30 CF 08 82 00 81 D4 14 07 18
 EF 5D AD 92 17 40 60 05 60 D4 70 D7 6D 0B 0E 05
 60 B7 3F 7D A2 AF AF 06 28 DE D7 93 5C 51 54 E6
 14 42 33 92 DF EF 5D 6D FF A4 E7 C8 8E 09 83 7E
 75 62 53 33 23 69 2D B4 AA 76 29 A9 92 11 B5 99
 2B 85 B2 DF 78 0E C8 E8 CD E7 4F 21 AE AC 55 33
 EA 17 79 EB DD 1E 0D C3 6B 96 A2 FC 99 A8 C2 82
 43 13 83 BA 76 47 0F 09 2A 4B 83 49 7D 15 4D D4
 E1 F5 00 70 65 DE 57 B6 F5 C6 D6 F9 DF B5 15 44
 01 76 5C 89 4D 62 59 AE 5C A5 8B 1A E0 D6 1D EA
 F0 0F F7 AB C4 8A 1F 54 20 9A 36 83 F1 56 2B E4
 5F FB AC CA B1 10 34 04 2C 70 C9 55 FD F6 14 74
 0A AF AA 53 6C 87 22 DF 5A 84 73 5C B6 3B EE 3F
 DF 59 07 6C E3 FA 75 C5 95 1A 08 D3 FE 64 E8 A1
 09 A9 2C E0 8B 79 2D F8 52 C3 29 43 D8 E6 D6 BB
 7A 46 23 6F 9A 0A 2D 80 D6 D2 33 34 D2 86 DD 55
 F0 A4 0E 10 C9 CC 35 9D 2A 7F 3F 7A EC DB 10 2E
 1F FD C9 D8 E3 46 1C 5F 4F 2A 76 7E 86 6D 84 EC
 5A E0 7D E8 C1 3B 17 13 B1 AA D9 AE 59 25 57 5A
 EE 69 AD 8E 13 17 46 2A 53 71 83 6C 23 90 C9 72
 F9 D8 A4 C8 57 D3 12 26 37 06 39 81 73 8C A5 E7
 F6 68 13 DB B0 A8 11 CE 69 A2 4D E7 1C 3F EA 01
 3B 48 D6 51 44 8D 84 38 0B BA D4 E9 34 7D 7C 1E
 5E 46 60 88 5B DC 2C 5A 14 C9 A5 8C 2E 04 54 54
 34 17 5C 03 B1 17 CB A9 43 17 CD CE 76 75 C5 29
 32 DB 48 D9 D4 27 BC 62 F5 6D 9B 8C 54 F9 10 BA
 ED F4 1B 67 2C 8F 73 87 45 38 ED AF 1A F4 18 05
 0F 7F 17 3F 90 18 DE DE D6 3E 6E 84 2C C7 E9 B7
 0D 65 25 D9 D1 0A 15 63 85 A2 01 80 69 A8 94 D7
 C3 A4 1D 40 35 6F 0F 5A 2D 82 9A F7 37 56 22 27
 E7 78 64 0E 95 91 25 F9 3E 35 B3 D7 9B F3 00 8E
 E9 09 04 E3 13 AB B7 9D 22 5A 8E 67 72 61 75 3C
 29 FB 6F 67 54 12 68 E8 0F FB 9A 81 FE 12 92 03
 46 5E 22 4B 82 00 1B A6 0F 70 0C BD EE 3F C7 A0
 32 4B 26 66 BF 1D 6A 9B 65 4E E5 9B AD 87 81 C9
 B0 E2 9E 90 C8 66 84 42 82 E9 98 6B 1E AB AC 3D
 F5 75 6B 53 54 28 D8 9A 64 48 9F 19 FF 4A 23 8B
 FC B8 72 4B F5 F4 F6 29 95 4C 55 24 D2 7C 10 CF
 E1 19 C1 A7 98 AE 2A 70 27 D9 54 BD BD C3 5C 06
 40 2B 5E 81 FB 14 61 18 A1 AD C7 45 4A 50 BE 58
 51 33 5A 3F 93 5E 58 70 85 55 1B A8 6B D2 36 23
 B3 52 B8 F6 2B 99 C9 89 C6 E2 95 6D 71 C6 18 84
 25 5A D4 0D 43 E2 C0 00 7C F8 1A C5 9C D8 79 28
 4F DA CB 0F 58 9D 74 1F E6 CE 09 0D 44 F2 64 A7
 C4 67 4B 5C 8C B8 F6 F0 AA F6 64 38 21 F9 3D 9A
 DD 11 0C E0 C8 89 B4 9F BD 05 9C 38 21 45 03 0C
 63 3C 37 8E 4B AB 63 7F 17 95 D1 38 82 54 87 97
 8D EA 4F DF 30 42 F3 40 70 F6 03 88 15 26 AC 30
 A5 DF DB 99 14 3E 1F E4 EF 36 DF C4 21 0E 08 E9
 D0 BE D2 1B 96 03 08 C9 63 7B D4 04 B8 85 EE C2
 1B D0 3E 41 5D 08 96 F9 DC 46 60 AA 0D BE 60 17
 B2 7A C3 BA B5 DA E4 B0 73 C9 4D 3E 16 61 6C 75
 51 78 CC F4 75 F9 10 A4 2A 9E E8 9C 73 22 B2 A9
 0F 8F 61 F2 38 B7 22 62 EB 9E 80 B6 A5 5E 9A D5
 72 A0 FA 01 51 23 EA 69 63 AC F3 87 2A D8 EB A9
 1A 68 46 47 26 48 A3 95 16 A8 3A 4A 09 06 CC 4A
 FE AD 45 50 6E E4 D8 2D D0 B3 D1 A1 E5 DA 15 1A
 7B 42 23 8B 89 DE A7 2F 4C C5 C5 7C 65 F1 73 9D
 7B 8D BE E4 30 3A C6 CE 62 24 30 01 8E 50 F1 C6
 62 D8 22 16 29 34 79 EF B0 AE FD 2F 5C E1 AC 04
 E7 0A 9B 38 F4 AA 0F C8 00 63 EF 55 70 C2 8E 87
 57 2D 05 C8 0A CE 5D 8E 20 E7 00 6E 86 4B E1 1F
 18 FC 58 40 F1 08 24 3C 45 AC 66 98 FE 48 B6 FA
 63 07 49 70 98 C9 B9 85 0C C4 8C 23 61 69 F7 DC
 8F EA CC 54 57 0E EE A5 74 C1 4A 19 AE 5D AA 0F
 E7 B2 C1 B9 29 18 8D 83 F2 5E 1C 42 69 D9 D7 7B
 D3 5D 2B 11 0C 85 B3 8C 90 6F 68 42 1D 75 26 EC
 6A B2 19 EF 32 CA C6 4C DE 5D 5B B9 E4 8F 39 E0
 78 20 1C 3B 34 0F 96 CA 09 D7 DB DF 09 EA 0A 6D
 CB 19 FB 07 BD 9C B9 89 EA BE 72 12 EC 2E 8A 8B
 65 00 56 C1 1D E9 E6 E0 76 C1 D4 80 C0 95 41 BD
 3D 23 94 12 95 C7 BE 6A 94 03 F6 A6 4D 02 72 10
 82 4B F0 25 24 E4 64 55 55 DD 45 BA 26 BB BB 7F
 AD 33 ED FE 1E D5 E8 EE 1A 7C F9 7B 41 E7 E8 84
 5A CB 95 31 BE EE C1 FB F5 53 BC 2E 01 58 DF 95
 EC 36 15 70 BB 88 F4 B2 F5 9E 5D AF AF 67 23 D3
 FE BB 00 03 10 CE 38 84 5B 92 E3 19 67 D2 AC F3
 B6 86 82 8E 2F E3 78 D3 16 5E 72 0B BE 59 2E 4F
 B6 3B FE FA CF DD 6A D3 31 F4 A7 AD A5 0F 5D 30
 02 0A 77 17 FA 41 31 7D C3 4E 9F D5 47 60 E5 5F
 EF EB 14 37 3A 51 B8 80 BF 26 E9 02 6A CA 04 32
 C2 BD 7A 33 A7 33 D5 E5 5A 14 F4 26 14 E2 13 3F
 E9 35 93 AF CC 22 88 74 F9 F5 25 B8 3C 4B 13 A5
 30 B0 8A 21 72 C3 C0 58 D2 41 EB FA 3D 62 24 C4
 B9 17 B5 9C 71 6D C9 18 CC F3 6A 61 D3 45 9C 4B
 D4 BF 0E 80 6B 11 10 8D 4A AA DF 84 5E AC AB EE
 73 4D A6 7D 10 8C C2 0C 3A BE 45 97 84 68 64 C5
 C0 84 07 D7 63 40 58 9E C7 4D 43 25 4A EA D5 A0
 15 5F DB CF 36 C8 99 85 38 92 1C 03 87 44 B0 1B
 41 D7 73 8E 52 AA 35 93 16 15 02 70 98 AA 93 F1
 3D 22 86 E5 31 47 B6 1E 59 1D 0A 55 45 C1 88 48
 D0 D7 E0 B9 90 7C C5 CA FF 2D 01 82 A8 98 B8 D9
 91 6E 41 28 83 9A 0C 5D AB 1E 52 B2 4D C0 2B A5
 6D 4A F5 A7 3A 51 33 1D B7 18 8F 7E 4E DF D6 C6
 2E 09 E2 DF 3D D2 F0 6C A3 F4 02 FB FE C8 53 4E
 76 36 1D 54 18 41 47 82 81 F1 FC B2 06 FF D1 B3
 E8 CD CF 72 71 01 CD 83 EC C5 24 F5 86 97 02 CF
 38 8E 26 4B 60 24 3F 63 F0 5E 37 A4 E7 B5 D8 CD
 79 39 03 0C D5 E9 6D 06 E1 3B DD 80 1F F5 91 7B
 C9 10 25 95 E2 82 5F EC 35 67 A8 62 D9 BB 64 D7
 EB 4A 14 C2 7D 3F 5D 6D CD B9 DF 72 CA 07 BA 24
 E0 BF D6 14 6C 4E B0 8B 4F 95 92 9F 50 02 C7 9F
 03 B4 01 D7 92 E3 B8 54 AB 6E 5D 49 FA 80 D1 2C
 78 E4 FC 04 A1 E5 E0 BB E9 A4 FC 15 B3 73 64 91
 35 B0 FA 3E 2D 55 57 ED F9 BC 5B 04 DA 88 4E 00
 43 6F DD 7C A8 C9 5A CE CA 7F 19 47 E5 12 FF 24
 8C 70 2F 46 1D E2 A2 5E C9 E1 DF DF 45 BA 82 F2
 EC 63 DA EE A0 34 11 89 BF C6 59 46 A2 40 E1 06
 A4 10 60 CE B9 AE 76 5A C4 5E 09 EB C4 9D CD 2A
 6C 94 2B 4A 56 25 49 EA 5C 64 13 C2 48 9C 6C 18
 3F 14 A9 4F 04 2E C1 67 26 48 02 A8 71 DE 60 59
 C7 49 D8 4D 84 4B 2E 9F 5C AC 0F A3 0D C9 E3 ED
 66 65 A2 28 7E 51 B2 9E 9C 25 C5 F3 DF 9F 1D E6
 82 C6 53 90 CC 7D A1 45 02 DD CF 53 B6 25 27 BE
 C6 20 B8 C8 C6 D3 81 CC B9 B8 39 62 A6 A7 38 E9
 D8 60 73 2B 78 19 98 07 D2 1A 96 48 F9 69 E8 F8
 7A FA 47 5C E2 20 74 D4 40 EE BD 41 CE 51 47 F8
 A5 44 98 05 EB E0 47 C6 C8 53 71 41 7C 59 F2 6B
 12 82 BB 84 9C 9A 8E 93 00 9F 6F 0A 3A 70 E5 9E
 3C AF EC 65 69 9C A1 53 30 EF BF 7A AB C4 AA 54
 7E 05 8B 38 98 7E 35 DC D0 21 86 6E C8 41 F4 C9
 B5 65 A9 1E C1 B8 A6 7D 1F 77 54 68 6E 01 3A C3
 0B 31 0B 8F 3B 21 51 B0 2B 2D 7E 1F EE 0C 2A F1
 54 65 86 0D 56 36 09 4D 5A BC 13 65 00 FB 4D B6
 10 87 F2 66 35 68 F6 39 C3 8F 20 B3 BA D8 76 FD
 BC 50 00 9D 06 57 8F A6 25 7D 0D 46 4E 83 06 DF
 40 12 5D 90 3B ED F7 7A D5 20 FC 39 55 10 CB 00
 66 77 83 85 5D 6F AE 98 96 A1 41 1E 5C EE A3 0A
 64 08 0C 5D 6E 5C 39 3A 7F D9 8A 47 1C C7 59 6C
 97 62 C2 22 7A 80 E5 CD CF 82 60 7C 4B B9 17 CF
 85 71 B0 9E BB 12 EE 52 38 43 EC D8 A2 66 17 42
 E2 10 97 B6 D3 8D E4 C0 64 42 A1 C2 48 46 5F CA
 2F 51 CD 24 2A 1C 33 86 15 DF 95 76 53 7C 68 86
 20 BE 5C C6 E8 01 5F BE E7 7A 6D B1 EE 2E D7 37
 DB 64 98 CE 28 5F 6D F9 84 91 FA BE 74 43 64 E9
 0C A2 18 22 D1 88 E3 F2 75 C8 9B 34 76 75 B4 74
 7D 01 0D 27 3E A3 3F E4 C7 99 F4 2E 8A 01 A8 CB
 79 87 C8 41 0A F7 72 CD C6 B3 E3 37 C2 A8 BA ED
 B1 FB 60 FD 95 E2 AA 1D 00 51 A0 EA 9A 2A 1C F6
 1C EC 55 72 AF B6 37 84 3D 72 02 73 98 75 AE 86
 C0 32 29 42 2F 50 B9 AB 1D 67 65 49 14 CC 63 4A
 8D B0 83 1B 60 00 7E BE 46 01 96 32 63 9E 8C D2
 F0 AA 3B E8 93 A2 FF 9F 57 F5 55 56 0A 9A F5 34
 51 97 B7 DA A1 44 37 E2 73 98 97 B1 2D F4 E1 A0
 50 C5 CE 06 C2 98 BE 51 EE BB 75 99 1B 38 A7 64
 BE 9E 25 7D 36 72 4E 6E CB 25 0B A7 6D 1A 97 7A
 1F A7 A5 E0 53 2E 3B F8 41 9A 8C BB 04 62 C0 DD
 61 EA B5 8E 06 98 39 63 AC E4 91 30 C6 27 8E 80
 02 26 AD D2 AA D6 13 A4 00 35 11 FF 12 48 11 30
 88 9D 25 AD B6 CC 76 C6 E4 BD B2 7F 6D 36 20 08
 37 94 87 DA 31 FC 34 ED 6E A8 64 CF 8C E1 6A E5
 10 F4 A5 C5 3E 15 26 CF 29 62 E1 13 D3 33 C7 A1
 2E 3F 21 81 ED 94 D8 3B 1D F1 20 32 4A 92 DD BC
 50 04 E7 3D 97 CF 16 71 3D 7D D5 15 EC 1B 20 17
 E8 8D 25 51 EC 4F 30 C8 2B 8F 95 55 F5 AE E9 10
 FE 0E 5B 7C 37 2A 7D EB 04 E3 D8 6B 0E 66 F4 0E
 07 E1 91 94 59 7B CC 0B BD 29 3B E7 36 83 74 7F
 7A DD EF 22 EF 02 A1 F1 A8 42 75 1A 6F FB 84 90
 62 FD 7F AA 32 1E EC EA B0 D4 06 FC 8C DD EF BD
 61 00 FC E9 73 D9 4F 8A D5 73 F1 5F AC 53 AD 66
 CE 45 A1 40 FD C5 05 0B 2E 37 38 45 4E 81 5F A6
 97 6D 9E 70 10 17 E0 F4 F2 AB B6 32 AE BA 5B 7D
 E1 03 F1 59 D1 AB B8 6F CB FB C3 C4 FF F5 DE 57
 3F FA 4D 49 54 81 ED 71 F4 9D AF 49 30 75 24 98
 91 65 4A 83 71 69 EF 31 8B AF 56 4C 16 AC 22 7C
 6E 97 44 42 6E B7 C1 02 8C 66 60 CF 15 04 1F 18
 AC A2 A5 76 F7 E0 6D 95 09 80 7D F0 D7 0F D2 38
 4E D1 8A 9B 13 D2 D9 ED 01 43 F6 CA 70 0F A4 35
 64 AC 50 4C CC 3E 1A 03 78 48 36 DF 0A F5 BA 7A
 E7 F6 95 26 7B 3A 94 46 76 BD 19 6B 1A B5 38 39
 47 36 1E 3F E5 8B 30 C9 FC E8 C8 98 7A B4 90 72
 E2 B0 E0 72 3F 61 C0 45 56 B3 FF D9 74 40 22 D9
 F9 09 B2 58 2D 10 79 79 EA 9F 2B E7 B6 9D 97 6F
 69 ED 08 46 E8 32 D7 78 F5 91 93 64 86 0C D4 5C
 D7 BC 0D 2C B5 2E 77 93 EC 30 E4 0E EF 65 15 C2
 12 E8 EF 26 1B F8 69 6E 33 19 81 11 EA 75 B7 9A
 A6 C9 EC 43 C9 B7 33 C2 BC AA 49 15 F6 30 1D BA
 80 F9 C7 F4 4D BD 0A 8D 9A 98 58 15 24 5A 78 D7
 67 8C 34 96 EB 78 79 02 90 AC C6 99 09 BD A2 42
 0E EC B7 C5 DE D5 1D EB B3 5A A9 6C 62 1F 93 F9
 D0 EF 01 53 1F BD 2C 90 6A 53 2E 76 74 17 0B 5D
 E5 72 D8 E2 76 89 46 63 4B 2E 7B 0B F7 35 66 37
 E9 D1 54 8F A3 79 3B A3 70 62 E9 94 43 0C 17 A8
 9E 59 21 F9 79 FA C7 C5 AD D0 26 FA F0 90 E8 F9
 D7 D6 CC D7 41 17 EE 37 65 CF DD 3C 1F 2D 6E 61
 E8 A4 04 0D 63 FC C0 32 6C D5 4E E3 79 5F 26 E4
 C9 28 AA E1 01 3C D5 31 41 25 AC 31 CF 18 F8 A5
 FC BE 9A 26 96 0F 8E A9 E5 26 0E 9A 03 F0 7E 8A
 CE 09 B6 D1 D3 B9 13 96 04 33 F2 46 6F 8D 42 4B
 08 BA E6 E6 CB 17 41 EE 8F B7 1E D7 CF B1 F5 CD
 FD 32 78 59 9F C4 94 61 15 3A 84 F4 75 C5 9B 6A
 F4 0D D1 30 AD 75 20 E6 8E 5C 30 AE 32 B4 BC CA
 03 BE C3 E2 C2 92 B9 8E 99 93 4A 5B 7C CC 6E EB
 D2 E9 01 B2 7F 57 24 11 77 DF 3A 0F BB 72 01 D8
 04 42 02 AE F5 ED 3C EA C0 D1 F2 7C 01 0B 20 39
 C5 67 C6 11 1C 9D 73 19 1C 73 F7 36 8E 3D B9 D1
 BE F5 85 9F CA FB FA 4C EF AA 76 B2 D3 79 5C 6A
 8E 87 9C 92 86 EC 64 95 8F 4C FC 13 EC C8 D1 AD
 93 E4 65 BD 76 79 2A 67 66 87 7C ED 3A 41 36 C0
 8A 09 CA 94 90 20 0F ED 57 5D 5F FF 9E 15 17 D6
 B9 5A B4 FF 56 98 4E 5E BB 7E 99 8B 8E C7 75 74
 7F DD 53 EF 08 70 77 C5 1F B3 EF 7B 47 DD 92 6D
 A5 E1 4A 9C 86 AD 74 C4 14 81 99 28 65 9C D3 6A
 1E 0B D8 94 95 3F A2 60 4C EC 99 B2 FD 65 BF FF
 75 4E 8C 93 73 37 D2 11 AB 1B 48 C6 C8 B9 B1 E8
 47 58 9F 80 84 FE 0E F7 A6 05 60 5F AF 6E AA 68
 C3 21 B9 D4 83 BF 36 5E B5 6C 78 25 51 EB 19 43
 A7 A8 27 B2 4A E2 F2 74 A9 D2 DE 9A 2C 09 EC A4
 62 7E B5 B9 16 73 35 68 3E B8 45 71 76 C9 CF 2F
 68 AC 1A C7 57 42 61 88 DA FE E2 F7 E6 D8 B3 A2
 EB C5 59 32 58 EB 83 BB 28 E1 6E A4 C1 4F 69 C9
 DA CB D1 B5 F4 3B E2 FE 75 06 2A 48 CC 6C 98 82
 3E 94 28 F4 68 AD 4E 19 10 CA CF 15 EC 78 3E 6D
 45 0A F5 5E 98 E5 EE 59 31 65 33 3F 9A 59 95 74
 73 41 79 26 86 BB BA FE 21 8C 53 62 C7 A9 9C 9A
 D2 25 C4 28 6E 49 4D C5 A6 A0 47 9B 7F 46 72 49
 0E 92 FC B1 CA AD 59 41 D5 1F 0B 86 E5 0B EF 0B
 23 A4 6E 0B D4 61 57 26 85 C1 37 79 C1 AA 04 5A
 FA B6 50 A4 E0 A3 2B B6 3E 38 B2 BA 45 95 B3 CC
 63 51 85 29 34 8B CD F4 00 60 CE 26 9D C6 B5 9E
 04 DE A6 6B 2E E1 99 CF F8 31 F3 98 3F 6B 45 A5
 F7 A8 8C 67 5B 06 56 4D 6E C6 EA FB AE D8 C6 15
 C1 FB 2F D3 FB 74 5A 9F B4 56 87 A2 B1 FC 14 56
 6C 4C D0 A7 1A 70 EC 91 3D B6 6B 4E 39 17 2A 36
 DF 96 BE 8A 51 76 0F 63 57 7B CA EA CF B2 23 A9
 7C B8 03 38 5B A3 D7 6A 0A 9E 89 2C A2 A6 43 5A
 84 D6 48 86 05 27 6C 11 25 48 76 E9 67 EB AF 34
 34 26 CB 08 73 B7 F2 9D 53 49 EF 41 2C F0 84 FB
 ED A6 9C 72 47 D0 BD 40 8B F6 DD CB 90 E5 7A CB
 93 D3 1A F6 85 10 22 EC 52 1B F2 19 9B C1 A2 F1
 07 41 E1 32 1D 38 4F 8B 3A 4B 99 89 D5 DF 9D 60
 FF 56 3E 86 7C 7D A7 14 49 B6 BC 9E E2 F3 16 E5
 F7 6B 4C ED E2 A4 D1 31 03 01 57 30 99 8B 53 A6
 BA 1B FF A0 CD DE AA D9 67 EE 2C 72 3E C2 2E B2
 49 ED F7 B0 64 EE 70 1B 72 CD AC C1 21 0F 2B F7
 A2 D2 ED 7B DA D6 FE A0 5E 1F D3 1F E4 3B 85 5B
 E9 39 19 FD 73 D0 3E 94 B0 71 38 05 14 D0 CD 29
 20 C7 E7 32 26 01 1E 61 DB F8 C7 F1 51 99 B6 7F
 CE C3 AC 3D 0E 51 B0 8F 1E 2B 50 C0 6A 28 96 7E
 58 01 B6 F0 76 C0 E6 11 C7 47 E7 52 A2 0C C8 6E
 E6 71 B5 42 AD 60 F9 08 02 31 99 D7 8A 0A 76 34
 48 BA 49 56 ED 08 DF AC 10 05 E2 9D 9F D4 4B D5
 47 1C 99 9C D1 33 38 CA 8A AA B4 15 F6 0D 9E BE
 CE 16 BD D6 80 DE 76 DC 4E 0B 37 13 15 D5 B7 1B
 EF 74 A7 9F B7 76 0B 5B C8 C0 69 A2 3A AC E7 37
 CE 68 99 A9 31 89 42 20 02 FD 0D 22 B3 7B 56 07
 33 E0 B1 33 E5 08 D2 DF EC 2E A0 30 12 6A 82 F5
 FD A7 DF 46 A5 EA 9A 53 D3 5C 95 78 C3 A2 6E 06
 12 3C 57 40 FF FE 0A 9C 51 42 FD B8 3A 12 77 7F
 82 23 A9 86 1D A3 77 7B A5 E2 22 38 3F 2C 17 46
 BB 30 EA 4D 06 DD 09 BF 98 71 0C 8B 9E 31 5D 78
 39 86 29 D1 8F 19 30 58 E2 D7 B1 ED F4 F3 52 3D
 7C 1A AA DE 63 EA 67 37 30 B8 F8 51 A0 B2 DA B5
 33 ED 0A 0B 81 31 30 53 B1 54 3A 7B AA 64 E8 61
 15 C6 04 5B 98 26 D1 D6 E1 78 09 29 68 F9 51 B0
 F5 FC 56 0C 9E A9 A7 BA B0 0C BA B8 08 F8 4C 28
 89 8B 03 84 77 F6 A4 C6 4B 0A AD C3 00 BD B8 93
 A5 B9 DE D8 19 A0 6E F0 CA E6 4A ED 9F 68 1A 3E
 8F 51 92 59 08 95 97 21 C5 03 29 B4 EC 69 31 F0
 E8 D0 F6 97 A6 E2 97 7D 77 05 DF 77 FB 63 0E A0
 33 12 A8 9B 3C 6F E4 7F 4D DB 6A 96 1F 31 20 27
 75 22 EE 99 57 D2 5D 61 A0 69 9B D4 1A 7C 6A 85
 ED D1 00 90 BB CA 41 04 46 2A 3B 1E 18 5F D0 1E
 FD 33 1A 1D F2 53 48 FD FC 6A 23 45 BD 86 96 76
 0D 12 22 4E A1 3A D5 A5 3C 1D 77 70 88 9D E7 EE
 F9 95 8F 76 E3 0E 7A 92 1B 3F 3E F6 DD 30 59 E3
 56 CE A3 15 3E 10 75 41 1B 11 69 61 46 1F EE 58
 C4 5A C2 5F 66 39 9E B3 0A 9B 97 07 62 DF 03 1B
 E0 94 9C 7F 86 E2 09 20 EE F0 3B BC F7 0C 29 20
 7B 1F 58 89 35 39 9C 8D 44 FE CA 12 8A A6 5F F3
 90 31 69 58 DA 47 07 BC 65 E3 04 F4 93 77 15 59
 B6 1B 4F 36 57 85 B5 9F 7C EE FB E1 80 98 14 EE
 CF 7E A8 A7 FD BC CD 61 5E 65 D8 2F B3 58 1A 5A
 61 71 DC 27 E2 D9 7C 93 D7 4F 4F 70 BF C8 73 82
 95 1C F6 D5 53 5A CB F6 35 9F D3 5E 2A 0E 50 85
 82 FE 35 1D B4 80 B0 CB CA 75 A0 3B 40 EA 39 7F
 61 50 32 F4 58 2C 6D F8 F2 D6 C7 60 2E 9C E9 41
 AF 67 2A C7 83 05 EB 94 C1 A1 F9 A6 9C 55 C4 81
 4B 7A D6 74 60 55 1E A6 CC 69 92 E3 CB 11 0B 45
 C9 C1 3E 96 C2 60 C1 81 2A B5 42 99 CD A3 6D 3A
 74 3A 90 EA 02 08 86 E5 46 E1 95 2E 98 AA DB 4C
 C5 0B 06 B8 04 53 CE B1 79 96 6B 03 8D FB F9 79
 6A F1 9B 9D F1 97 B3 C7 C4 A8 F8 11 64 6C D4 25
 37 C7 E2 F1 CF 7D 60 A5 95 71 AC B8 B2 0D 08 0F
 39 68 47 09 D2 D3 89 FE 29 A3 F6 12 09 DD 6D F9
 DF D6 EB 5D 44 06 8D 8C 68 56 50 10 3F 41 33 FA
 B9 3A 45 7D AC F9 D6 9B 14 35 EC 6C 01 48 C9 7E
 BD 57 A5 61 DB 15 EC FE FA EE BE 45 D0 7C 81 38
 1A 96 D7 6C 20 A5 4F 0E AB 20 32 90 F7 96 9C 68
 C1 89 24 F4 2D 43 93 89 65 3E 4A 98 33 85 01 9E
 36 6D 75 48 CE 69 C6 D0 49 91 7A 9C C2 49 6D 97
 5E A5 A5 0D A7 72 A2 9A 93 FC C7 46 75 61 8D BD
 A4 82 60 66 95 81 AE C8 AD FE 47 3B F8 D5 BD 9F
 BC CF DD 67 A5 E6 8C D4 09 1E B2 F6 72 69 5E FB
 63 F7 B0 0A 01 AD D0 94 2E 6B C0 2F 7F 83 9B 9D
 D2 B5 4E 24 39 95 1D CA C4 09 6A 78 F1 E1 E8 EE
 44 D7 3D C6 A9 83 A5 39 81 71 13 35 44 46 8A 09
* End 799186423 2622434296