* LTspice Encrypted File
* 
* This encrypted file has been supplied by a 3rd
* party vendor that does not wish to publicize
* the technology used to implement this library.
* 
* Permission is granted to use this file for
* simulations but not to reverse engineer its
* contents.
* 
* Begin:
 E9 39 25 86 34 AA 6B 78 6D 6E 34 A1 91 7C 23 D6
 9E 02 FB 85 6B EC 53 60 48 F0 D8 56 C0 74 4F 61
 8A 80 2D 88 23 22 BB AC 8C 0F 1F 86 28 08 7D FE
 8D EC 1A 3B 94 F1 84 75 42 73 35 B4 BF 8C 2B CC
 5E 4A A4 C6 0A A4 43 74 C4 73 3B 4D 62 EC 5B 4D
 4A 4B 4C 3D 7E 36 45 AB 53 F8 89 48 C6 24 72 D2
 1C F4 F3 85 80 0F CE F2 39 85 AC C5 8F 41 62 6D
 09 56 AB 52 FA 16 56 9B B8 F2 B6 69 E6 8E CB E1
 F4 47 7C 5A 97 DB A1 9F 82 0B 1B F2 49 5A 2E B4
 1B 96 94 8C ED F4 A7 6D 07 20 85 5E 76 1A 80 9D
 F3 26 63 0B 12 DC 2E A5 D5 DB CE B2 6B 97 E4 2A
 45 E8 38 E6 24 DA 4C 58 F8 00 2F 9E 6E E7 05 2D
 5F 5D 86 DF 51 A0 6A 2F 63 1E 77 0C 23 DD DA CB
 48 69 27 54 09 1B 05 5A 13 75 5E C7 D4 BC C9 CD
 D2 ED 27 30 FC 87 BB 41 8F 65 54 AF 64 BD C2 2D
 45 16 91 0D A2 85 45 A6 B8 9E 34 FA 92 BD 77 B0
 23 24 40 28 A2 F9 51 0C 36 87 BB B2 F8 3A E4 5D
 AA 03 A1 EE 67 A5 CF 16 2C F2 77 00 10 D4 B7 F8
 53 35 DA C8 B1 D8 F6 95 82 0B 9C DC 9C E3 C2 E7
 A6 B3 53 E6 D3 B0 1D 84 E1 C7 7D F5 C5 52 DE 2C
 12 93 DB 6A C8 8D 3C 4F E0 2C 47 98 11 45 70 BF
 E7 63 D4 3E CB 2C ED 36 1A BF D1 7B DD FE 09 41
 61 F3 8A 94 1D DA 6D 99 AB BD DE F0 1B 84 17 71
 DC 13 B6 46 C0 4C 04 75 D6 C3 EA 7D B1 67 E3 F2
 0B E4 3F 0C CE D2 14 41 DA 14 8D FD C3 4E DA 3A
 41 B1 9B A6 D1 FF 91 FF 64 7E C4 84 21 E6 BC B9
 43 F2 F5 07 20 BF 52 7A 42 5B D8 35 3C 4C 90 D8
 91 34 ED 3D 43 60 54 1F C3 2A 4E F7 93 63 9B D4
 3D 27 98 A0 60 C1 ED B8 96 73 06 86 B8 09 D2 4F
 D6 05 D4 F8 CD 50 E9 EE 17 F5 27 E3 28 45 B2 FE
 52 E6 8D B8 31 0E AA 0E F8 01 B4 2C 95 67 02 9D
 E4 74 F9 96 15 F3 F5 24 FC 37 0C 38 18 9F DC C0
 21 CB B7 04 A7 36 08 35 27 6C 81 26 12 EE 64 95
 F6 6B 2F 90 D5 C2 53 05 47 62 11 C0 6D 3F 00 AC
 BF ED 21 FC C7 74 45 67 57 03 EA 24 C3 E5 A3 33
 78 49 DE 13 51 A6 AC A7 F6 67 B9 CD 6F 9F 95 E5
 BD 2D 21 E5 A4 65 B3 E5 98 E0 6B 99 AD 26 02 D1
 F8 A1 F1 54 79 66 47 4D 50 52 8A 1C 1F AF AC FC
 32 90 70 E7 82 B8 F0 D4 3F FE CD 93 81 BD E2 95
 88 31 86 50 A5 F3 63 AF 80 25 BF F7 ED 90 0D 40
 57 54 4F 74 08 FE ED C5 38 EA 3B 52 42 41 D0 E4
 83 03 C5 EF 37 5E 80 62 C9 61 2F F2 07 56 81 01
 7F 30 C2 D0 04 CB 90 8D 7F D2 09 AC FB C7 B7 EE
 41 92 DD 52 3C 66 9E 60 D5 BA 94 AC 28 15 4F FA
 54 79 A7 56 B0 B4 CF AA 9A 4F C3 7D 55 E6 D8 30
 C7 4C 7E 86 AF 21 BC C1 41 BA BB B4 BC 35 A8 7C
 4C 25 76 DD 68 EB EC A0 B3 6C 93 E7 FA BA 9C 45
 D0 F7 52 F9 30 65 05 12 A0 2E 0E C2 69 EB FF 3B
 5E 51 8E 03 77 33 F1 8B DB 9C 3B C7 A0 2C F0 C0
 70 B5 7F FC 29 7F 55 65 2D CA 6D E2 E3 E8 81 87
 2A EA 4E 7F AD EE 4D 74 74 DA 82 88 64 AD E5 1D
 BB D7 16 38 29 49 66 20 D2 63 49 B7 EB 7F 82 32
 B9 A2 47 80 8C 39 58 DD 8A D6 8F 3A 6A 35 32 35
 1E 73 4D 12 EF 9A D4 75 34 79 2B 1B 16 56 81 63
 69 5C 06 D7 CA 93 44 67 AA 72 A9 75 0F F8 64 04
 B0 42 0B 3B 19 09 D6 7C D1 70 D4 EB 1C 71 C5 41
 26 95 B4 FC B5 09 18 D3 5E C0 9A 69 56 B7 F4 CE
 A8 DA 0E D0 FE 8B A7 46 02 82 41 05 2E 43 F6 03
 03 25 BF 76 FE 63 17 8E 3C 59 FB 04 F7 43 28 A7
 4A FD A5 BA BE A1 8C 59 1E EE B7 B3 77 C4 F3 D5
 98 95 D6 AC FF 23 6C 58 3D AB 68 20 8E 2C 5F C5
 C0 9F 42 B4 96 9C 1F 07 07 0A D7 88 9F A3 4D BB
 91 83 2E FD 96 3E 39 AC D8 E5 2F 5B BD 80 BE 24
 01 D8 EF 25 23 58 8B 5D 09 C7 E6 3D 7B 5F D8 A5
 6F 1E E9 AF 1A 64 27 D7 3C E2 DD 57 66 1C D4 2F
 11 60 93 CF 27 68 37 AF 92 D3 08 0E 73 39 C1 B5
 F0 43 93 24 5A E6 7D AD CF 90 D0 9F C7 E5 00 97
 59 B2 FC 06 DF 43 2A 2F 6C 14 9F 4C 94 83 2F EB
 E2 5C 78 EB A7 BA 9E 66 39 6B 22 83 69 73 6D 8E
 E0 A9 6A 4E 8B 0D A7 DC D5 05 9D 61 08 3D 1A 68
 3C 98 FA 51 9D 2F 47 BC 69 3C 10 E6 5C DB 34 E2
 0D 8D 3A 7B BD 55 FB E3 34 15 EF 21 7C 18 0D E0
 E1 AA 1C BB EA A9 5C 51 5B E6 EC 74 90 B9 78 75
 05 AF 73 EB EE E0 11 85 D4 6A D6 48 B0 B8 D0 3D
 4F 91 07 B0 8A 3D C8 8A 14 DA F9 3A 24 11 D8 9F
 47 CC 2E 47 68 27 28 DF E2 41 B3 D0 E5 19 1D 39
 90 CA DF 54 3B F0 75 0A F8 8D F3 C4 5E C4 FE AE
 FC 73 5B 0C E6 33 58 97 DF DC FC 4B BA 0A 58 15
 61 CC FC F1 80 D2 4F BA 2A CC 13 7E 98 4B 94 9D
 EF DF C5 38 A2 B5 E3 9A B3 3D 6C 75 2F 30 9D A9
 31 6C 96 03 92 B2 36 21 1C 85 3F 80 F3 39 6D 7B
 1D 65 2B 41 51 37 17 5A 76 92 C3 2B 03 AC EB 0A
 9A 66 23 83 BE 90 59 18 B7 02 72 68 64 FD C8 B6
 DA FE A1 B9 FF 32 03 FA AD 74 B2 92 4E 8A 29 A9
 26 6A 3D 58 C8 A7 BF DE 66 A1 01 C7 E9 46 8A C9
 63 97 9E DB 8B 16 14 3D D8 86 2B D1 23 1C B2 DA
 21 0E 44 89 38 D7 53 71 90 42 DB CD 80 9C 10 F5
 5E F9 D4 4D BB A4 B3 39 19 F2 9E F4 32 96 0A E3
 E4 31 2C 26 A1 D8 C1 1F 1A A8 42 63 2D 22 19 C8
 D3 55 1F 49 64 75 86 37 A0 68 DB 3C BD F5 36 C8
 9E 42 F6 7A B2 D1 DC 9D 17 3A 4C ED 22 41 22 35
 B3 FC 89 D7 7D A7 43 F9 90 FC AD 77 34 A6 76 25
 73 54 D6 C9 74 60 DF 9A 1D A3 EF F1 3B 30 3D BE
 68 BC 21 EC 74 7B 07 7B 26 4C 60 9E 4A 49 A1 D8
 7D 23 97 0D E1 ED E7 59 34 97 9F C0 33 AA 06 2D
 48 01 D5 22 21 02 35 CF 16 73 8B DC 70 25 2C 16
 1A 89 76 91 85 5F 78 57 35 39 32 91 0E 22 E0 0F
 68 29 68 AC A2 FC 9D AE 77 A5 B0 14 C8 2D 2A 86
 2A FF 99 A1 BE 41 9C 85 47 2E 22 D9 1E 41 4F B9
 01 6B 64 AA B2 B8 9D 6F 6F 53 25 45 0D 59 ED 48
 12 FB A7 0F D9 F0 FB B2 86 06 5E A5 D2 EE 09 56
 09 1B 52 39 E5 49 45 E2 30 B0 A1 0F 4C FC 0D F3
 9A 0F 4E 2D 90 3B 54 EF 56 1D AE 79 32 9F B9 1A
 62 75 74 A2 CE 18 09 34 42 87 ED 37 B8 CE 08 BF
 4B 8C 82 A7 87 4F 57 4B 6F FA 17 C4 F2 40 1D 0A
 AD 6E C7 61 48 C8 2F E3 54 24 26 A9 A0 F5 56 0E
 96 7E 4D A8 0D 35 83 C3 F8 A2 72 AB D4 CF 32 B9
 9B 66 0A E2 35 F5 FB 16 66 4F 52 A0 3E FC 20 36
 2D 9C 1D 8C EA CD 76 B7 28 5F 2D 73 DC 13 C7 65
 32 AF F1 BF 3C B2 8D A1 8A 57 14 11 AF 15 75 3C
 79 1F E2 EF 2F 46 8D 79 D6 C3 9A 35 2F 32 59 84
 ED 1B 57 9B 7F 90 14 4E CF 08 C3 92 10 08 8B 29
 19 52 FC 17 12 61 B8 D4 BD 07 1E FC D8 AF 8F 1B
 2D 85 12 EE 82 0F E7 CC A4 9D 2D 27 76 1F 8B B8
 D2 33 AB E3 35 49 22 77 DA 4C 61 7F 61 20 6E CF
 CA 91 10 27 0C 61 5B 78 40 7F A0 E5 CE B5 C0 E0
 38 27 3C 0F D6 E0 50 6C 40 19 0B 91 7D 1D 9C E5
 F5 11 36 62 0C 31 5E CB 0B B1 C2 FF CE 47 64 67
 7D 25 E9 DE 27 54 89 45 B2 09 58 1B 07 A9 06 29
 A7 94 E6 07 09 D5 D2 03 4F 34 8E 0F 22 10 E6 FD
 CA EA 78 11 CE AF 40 F1 F2 F9 F8 44 A9 67 0A A3
 C0 3D 2C 10 7C 5F 74 DF 3C 23 3D 48 C6 7E 28 CE
 55 08 FB 65 58 74 34 C5 3C 38 56 5B 35 60 6F 40
 88 F8 A9 99 28 0B 40 F4 A3 0D 1B 7C 10 A7 33 BF
 88 13 CD 5B 67 26 96 BB D7 E7 C3 5A 66 64 C9 2E
 B5 73 4B 4A BB 44 34 9B FC 8A AD 2E 8A 71 48 23
 B9 CC 32 AE DC 80 EE 0D C3 69 25 6D AB 6B E0 59
 26 D4 22 C2 BD C1 F5 DC A7 D7 4E 4F 76 2C 74 19
 03 BC 63 95 C9 C8 AF 2E 5F 19 96 84 4A 69 22 14
 DE 05 A0 A0 47 6D CC C3 88 B3 35 31 83 FB F2 6D
 F0 FF F4 9D 1A 8C 78 3A EC D7 E7 5C 18 48 99 02
 F1 B5 C0 25 13 9E A7 44 E4 B2 46 25 B5 43 21 D7
 9A 5F 05 F7 AB 55 A6 90 77 4E C4 A0 BB FC 3C 21
 A5 C1 AB EB 2C 5B 30 68 B0 9E 0B 63 FE B0 A1 67
 3B 44 D6 34 89 1F 86 BD F9 EB 92 5F 53 F7 9B DD
 B8 9A 75 6F 14 90 1A FA 01 AB 0B 76 9F 79 F1 49
 3D 0F A8 3B 35 72 F1 F0 0B 33 1E BC 01 2E B3 89
 ED 77 B7 F1 E2 52 32 86 CC 8B 79 3B BE E9 C3 2C
 BD 8C 54 F4 50 5B 29 D3 2E D5 56 C4 F6 FD ED 5C
 64 57 55 80 61 A1 F5 44 DB C3 38 EA 7F 33 03 16
 3E 17 87 26 F6 4A F6 65 1C 35 6A BA 97 26 A1 3E
 71 93 E4 56 9D 49 7D 3C B9 60 65 F0 48 E6 94 A4
 0D 6E AD CF 42 8E 3C 47 1B C8 CA 3B B2 3D 24 1E
 31 00 3E 0D F9 B1 36 6A 6F D5 10 6B 9E 5D AC A3
 CF 8F 63 B8 FB 09 6C 01 51 96 35 13 84 B4 56 36
 DD 36 E1 28 CE 71 8A 7F 88 1C A1 1F 05 3F 96 D6
 6D 14 D0 C5 6B 9F 01 4C 4A D8 8A 9E A5 93 F3 15
 72 68 F1 B7 CC 6E B3 14 2E 7A 7A 31 05 19 8F 9F
 0F C6 E6 26 EE 53 38 0F D4 5C 16 78 AC DF 67 F3
 21 A9 DA D7 9B F7 32 3F 30 0A 39 C3 57 81 D3 58
 EE 17 05 29 73 EC DF 9C 5E 57 D8 2B CD E1 FA 7C
 2E 7D ED CF A1 31 B2 7E 9C A8 20 B5 56 16 85 C3
 64 80 B6 AB 21 8F AD AF 30 8C 64 61 8E 6A 9B FB
 F9 EB 28 44 15 DE A4 E6 46 DA 92 62 27 C1 A6 10
 6C C9 C4 87 A2 5D 05 F3 49 EB 1C 7F 3D C4 A2 F5
 08 45 E1 04 1E 21 82 78 3B AD 19 78 04 65 DD 33
 E5 A1 F9 CB 97 79 8F 4A 3B 35 6A 7F DE 0A 23 81
 14 FF A3 64 D6 58 07 02 71 85 66 AE 2B 07 14 E1
 F2 9B 84 D8 21 9C C2 FB 9C BB 98 46 D5 21 23 37
 51 AE B7 E4 94 4C 31 E9 68 41 AA D8 F5 77 94 EE
 30 DF BD 88 F9 5F 7C 89 F3 D2 33 5A 69 88 97 78
 50 90 AA B0 0E 57 12 17 8C 9E 95 AC D8 41 E7 4E
 AD 3D 5E 48 AC 86 67 B1 6B 6D 33 AD 90 9B 03 39
 78 6B BB C8 69 68 B9 BC 65 01 1C 92 DD C8 7A 8F
 8F 4B 7D 0B 94 83 04 15 39 77 49 98 76 D3 F2 24
 07 2E D4 95 CA CB 88 93 D6 5B 17 C4 D7 A4 59 EA
 A0 63 9C 2C 6D A5 9B 6A B8 B4 E5 CE 37 BA CA 1C
 A7 8D 17 F0 7A F0 18 AA 1A FB 16 12 3B 71 BA 04
 BA C2 44 2C 80 E1 54 4B 09 C3 F2 B5 30 E0 C8 D8
 6E 3C 61 66 E4 4F 85 E7 91 B4 4C FF 4C 27 BF FA
 F3 6B 88 83 61 B8 2D F6 7A F7 BE C7 69 D4 69 A5
 0E AA AA 07 46 20 00 8E C0 0F 3A 95 0C 0C 77 63
 F5 E7 98 75 6A 48 09 10 16 35 F5 C2 4B F7 86 8C
 1E 2D 54 F4 B7 4F F9 BB DA BC 5D A2 AA D0 67 97
 20 3C 07 F4 E6 80 88 9D 9C 1E 15 B8 C0 BD 87 9A
 DC 79 4D D8 9B 66 C5 E2 5A 44 18 91 9E 49 31 C8
 FC 6D 3B 40 29 0F 98 33 CE 91 79 0A 90 FD A7 78
 2F DE 21 A0 F8 2E 29 16 FA 92 EB 44 C4 28 FD 21
 35 99 A9 D3 9F 06 05 5B 11 A6 E9 D6 3C 30 BC F2
 8A C3 77 3A 8A 9B 5D 5C 43 CA A1 26 6C 88 1D B6
 26 62 E2 C4 69 5A C9 59 5A 8C D3 F9 B5 37 92 FA
 63 26 48 92 55 81 42 CB EF A5 2C 63 C0 BC B8 64
 02 50 F5 7B 7D 63 CC CF 07 74 76 C1 DB 7F 5E 8A
 C7 31 B6 6D 4F 6A CD 69 0C 64 94 5D 13 47 A9 D1
 BC 47 AA F3 45 B0 49 B1 2E 12 AE AC 7A 68 6A C7
 9E 3C CD 4D 25 66 C0 25 C6 ED F2 5D 0A 7B 64 D4
 E3 D4 76 0E 29 FA 2F E4 C2 A4 E3 5E E8 0B 40 93
 02 FB EC F6 2A 68 8C 67 75 B1 50 40 94 66 6B 36
 92 F1 10 3A 7A 28 C4 89 D2 A0 32 E0 0B 28 50 FF
 4F 25 3C DE 23 A9 1F 4E A3 26 76 EB 9D 8F 4D 23
 36 0C F5 12 8B DF A2 0D A0 97 5F EA 45 53 5E B3
 8B C6 5E 2C 72 1C 40 DE E3 5A 0D 8B 03 0B E0 73
 6E 2B 96 27 D8 26 07 72 E0 84 07 F3 6F EB AD FE
 6C 1C 20 2A E0 80 CA DB 1E 1D 63 18 30 E5 E1 78
 79 B1 AE B8 01 93 A4 16 48 8E E1 28 C5 F8 FD 1C
 E5 53 3E 20 37 48 BC BB 86 38 67 C7 70 03 D3 47
 03 51 63 87 F3 EA A4 59 E7 86 B3 61 67 28 29 EA
 53 C2 60 16 21 A6 73 70 97 4D 44 6C 1E C6 00 29
 84 FC A2 12 55 AF 56 97 38 4E A0 0F C7 04 DC FE
 CF 50 01 12 7F FC 7E AD 6C EA 4A 39 74 5F 92 06
 44 D8 5A 29 59 B5 84 C1 12 81 64 2D AF 64 53 3C
 72 46 4B 76 FF 7E 8E AF 28 91 A9 4E 03 F7 61 EC
 C9 29 2E DC FE 9E 49 5E D0 8E F5 6C D5 29 46 6A
 18 83 24 54 78 09 DB C6 68 98 43 11 9E DC 15 EA
 90 66 90 96 28 B5 79 71 34 D9 F0 09 BC 14 C9 1D
 D9 BF 3C 5E 3B 9F B2 58 A1 8A 4B 7E 43 D9 C9 02
 2B A7 B6 56 D3 22 3D 68 BD 80 46 33 AD 46 15 6A
 7E 94 C4 86 C6 F3 1D 86 E7 C9 54 6F D8 FF 65 C2
 28 1A 89 D7 97 3B EC CF C7 0D BB D3 F6 39 3F 80
 A5 4A 60 95 41 FC 01 94 6E 8D 6A 9F 97 51 23 B2
 DC BE 7F AC CA 03 0A 87 5F AF 43 52 04 56 36 AA
 11 09 68 0F 4D 93 B5 A7 4E B3 89 43 B9 9B 3A D0
 3E D1 66 5F 23 FE 0E 84 E3 AA 1A 6C 90 0F A9 92
 D2 F1 3F 73 2D 34 3A 4A B4 3C 6B 24 BE 2F 78 8A
 C7 E2 89 5E 02 4A A8 4D 24 5B 56 5D E7 01 A5 8A
 1B 56 7E C5 46 AA 54 B2 37 48 99 0A 2B 13 3D C9
 F9 BE E8 79 08 C7 3D DA DA D6 0C CF F9 3E 59 87
 F0 9B EC 58 88 31 80 70 4E 67 26 37 2B 00 C9 26
 F8 CF 71 4D 8B 0A 73 02 C8 EB EA FC 73 25 C7 58
 C4 9A B8 2A 7A AE 16 D7 D0 FB 12 19 C5 44 3E 41
 87 04 55 DB 0C 0B 0B 3A 7E 1E 91 ED F8 71 EC 98
 73 3C 45 26 59 FF 72 71 B0 EB BB 13 1C EE 06 35
 46 49 CF B5 F0 A2 FC 07 8C CC C4 DC 75 06 E8 74
 3E EB C3 18 9C BB AB BF 3E C3 6D 49 EB 48 ED E9
 C3 02 54 89 C9 7F B2 02 1B 09 9E C3 0F 6B 6A 56
 A8 D2 21 0F 9A D8 EF 64 DD 2D E5 C3 3B 34 28 5B
 FD 07 CA 1A 11 B1 F8 29 58 79 3B AB 17 1F BC 5A
 41 FB 00 98 CD 20 62 ED 9D 01 6C 8E 30 A2 83 86
 3F 6B AD 82 79 CA 32 B8 A4 A9 B8 AC 33 D1 7D 7F
 97 19 15 52 DC 01 B8 F4 A0 75 48 F0 41 06 C7 D7
 A6 7C 57 34 05 2B DB 02 19 F4 C5 62 41 88 D0 C5
 A3 A6 D8 09 C5 75 53 72 16 DB B3 C5 5C 9F DD 6E
 92 DB 0D 0C CF 84 BC DA 3E 2E 1B 38 ED 18 86 38
 BD 49 5B FB 62 3B 96 A6 42 AF 56 EA 96 7D EF B8
 10 3D 93 A0 F0 81 B9 8D D7 4E 13 A2 72 64 79 3D
 73 45 89 2E 8B FB 0C B3 48 5D DB 27 25 D3 10 4C
 DB 1E A3 14 0F 5A E8 AE 06 1D 09 FB 31 24 81 9E
 FC F7 FD 12 E0 A2 47 DE E2 49 C4 84 B0 C2 E3 BF
 D1 E8 58 AC AC BE F3 5E 12 FB 47 93 3E BE 88 F8
 87 45 58 8C 28 10 6F D0 AA C9 30 12 B6 F4 E4 02
 B0 93 E8 AA 52 CE C9 FB FA 8F E3 A0 69 28 31 3F
 C6 58 45 65 25 75 83 F8 EC DA 81 E4 15 BC 22 7A
 49 E4 05 09 D0 DE D3 56 3A 1D 3B AA C4 43 8A E8
 D1 6C D5 7B B0 38 9F 2B 99 B7 46 E8 31 D4 21 F3
 C8 A7 11 80 13 FA 99 78 8F D6 D5 04 7B EE 82 01
 FB 02 37 6E A2 AD F1 CF 5F 55 E8 60 70 B2 D4 76
 33 87 1B BC E0 1B AF 45 5C CF E3 B7 F6 42 32 E4
 EB 2C A9 05 5A 45 CB 74 BD F1 A2 E6 DB 89 08 0C
 4D 1E 0B 02 DF AE DD 8F BC 1F 48 44 87 67 C3 1B
 2E 8D 15 D5 D8 B6 FB 45 22 98 42 BF 3B 3C F2 01
 46 22 15 6F F2 04 02 35 F6 20 FA 09 07 A5 CE 8C
 4F 38 B5 B0 77 18 E8 C5 08 52 2B B8 FE 4C 2A 86
 09 DB C0 FF 7B 3D 1F 9A 1F 35 66 10 27 C2 76 32
 1D 45 43 CA C7 E0 70 BB DE 39 68 F5 BE 34 C9 53
 82 CC 42 21 E5 BD 78 E9 8B AF 04 B8 B2 7B 58 64
 8E 3A C2 34 FD 4F 03 8A E3 0C 7A 55 43 CA 4E 59
 75 13 A4 A7 F4 3C ED 7D 48 20 DA 4B 2A 90 BE CF
 D6 9C 7D 46 94 96 C9 0E 17 DA 58 CE 00 06 05 16
 28 46 F1 8C 70 91 99 8B 58 F2 5E 6C F5 0D 73 62
 D3 2F CD 13 F8 95 60 32 42 49 47 23 E6 3A 9B 07
 FD 89 B9 B4 C9 6A F3 81 43 FA 63 81 C9 35 24 95
 4B 2F 81 0E 5F 0A 51 9E F5 F2 2E CE F8 12 4E 88
 FB DB 01 A3 64 98 B7 F4 DC F3 A6 0A 56 14 14 F0
 0E 2A B3 E0 7F B9 2D CE 10 BB 2F FA 1B 3D BD 61
 AD 67 97 0D 6A 8D AD C3 05 04 40 8E BE 17 C5 B4
 EB D7 57 41 B5 F1 35 8D C9 B7 B4 A5 F3 74 63 4D
 48 B7 03 84 DA 01 CD D9 BD 70 F7 C5 00 0C 23 44
 AD DB FA 03 3F 29 A6 FF 1C 61 40 E6 F7 B2 56 5D
 65 F2 2E 0D 42 70 54 E2 FC 06 EF 0D 55 15 E0 6F
 5A 2D 7A C1 AC E6 C8 7A EC F4 A3 3E 55 2A 19 B6
 C5 7D CD C1 86 99 BD 8E 1E 35 EE A6 7D 81 CF E4
 C6 76 B0 55 FE C9 31 E6 30 71 68 37 73 41 AB 36
 6B 12 CE F4 13 29 E3 FD 70 BA B9 F1 FD 38 63 E1
 48 17 FC 41 45 BD 99 40 22 01 84 F8 05 9C 9B 43
 DF 2C 20 23 30 2D 7E 97 47 F6 C8 F8 9B 22 6D 9C
 A6 72 89 3C 95 12 35 04 DA FF E2 71 EC 7C 29 56
 2A 8F 51 FC 39 98 AC 28 C5 39 09 8D 98 4A 72 34
 B3 49 86 81 20 EC 9A 9F BD D6 0C 7D 1B FA D1 91
 0A 74 AA 96 82 F3 1A 38 7A 52 19 A1 CF E9 14 ED
 C5 CE 19 72 A5 6D 9E 9D 09 0A 8E 72 02 CF 74 ED
 67 9A 3F B9 27 26 FC FE 75 1F 45 76 B9 20 89 42
 2A 08 C6 B5 67 71 13 E6 A8 13 57 2A 9E 4E D7 7A
 3C 98 9C 1C 5B 83 21 01 8E 5C DC 04 30 6B 0F E5
 15 43 A4 EB 4C FD 26 9B ED 93 66 24 C1 5C 7B 6E
 DD F7 94 B2 CE 74 72 57 39 D6 CF 8B BF 92 6D BD
 57 6A C9 6A 4C E9 D0 5E E5 15 94 25 12 45 C2 F6
 BE CC 88 13 9D F8 FD 0B 5D F3 9A 2B 09 A8 D5 00
 5F 2C 41 AD DE 0A 30 DB 83 34 D8 8A 65 BB 18 01
 23 23 71 88 12 96 41 6A 0B 2A C2 F6 BB 9E 38 BE
 A8 57 89 85 41 E6 2F A3 2D 00 23 E3 E8 0B 64 30
 35 BD 79 27 03 F5 67 57 EA FC 39 F2 8B DB 3E 3B
 89 E4 E0 BC 5E 5F 66 A2 FD D2 F8 F4 28 A2 A7 AD
 5D 46 AF 98 C7 D3 77 AB 9F 08 17 F8 AD FF A1 AA
 FC D2 B0 A0 CB 21 56 C6 E0 C7 EF 2D 17 0A 8A 36
 AB 97 76 13 BB EA FC 2D F8 45 BD 66 CB B6 DB AB
 9A C8 0E 41 00 42 10 1E 84 44 13 79 D6 B4 A0 13
 3F DD 6E A4 09 76 D0 75 6B 9D F8 36 9D 7D DB 7E
 42 D8 D0 1D 1B 88 7B F9 97 3F 5B 6D 89 EF DE 52
 D9 EF 0A E7 5D E1 17 ED 06 ED 48 85 7D DD 05 EA
 0F B1 30 79 E7 F4 2A 30 59 7C CB 6D 9F A1 D6 A0
 F1 6C 3D 42 C9 6E 94 C9 34 30 E3 1E E4 1E DD DB
 57 8D FC 06 D9 CB 6C 12 62 8E 95 5F F2 41 C5 79
 1E 78 45 4D DC 74 23 93 88 EE 2A 4F 84 5C 88 9E
 00 61 C4 5B 2A FD 42 76 3D A9 59 BF 3B DB EC AB
 BF 65 75 97 9E C8 10 0C 48 E6 CE 25 D0 4A 8F C9
 D5 26 38 04 A6 71 7D 7E A5 65 35 04 4B 9A 71 1A
 01 95 16 58 68 C8 8F 8B 99 A3 C4 96 DB 68 4A 0C
 D1 97 41 2E FB 59 70 88 B9 BC CD 6D CD B9 95 63
 A4 02 E1 E9 C3 8C 6B AF 5A 65 AB C8 F6 EE 5A F1
 33 B6 06 A5 F3 DB 96 80 44 DF D1 B9 ED 86 C2 9F
 E0 AD 35 8E 0B 4F 38 4B CD 3F 58 A5 02 0B 99 45
 C6 B2 70 01 11 8A 83 A5 3F FE D6 90 4F B9 36 02
 93 4C AB EC 4F B7 CC 8B 17 EC 0B 19 BE 86 AF 76
 0C 11 EE F0 F6 A0 59 BD 37 91 5E 57 D3 40 C1 E8
 04 12 BB E4 1A B2 42 F3 50 1E C7 F6 BF F2 90 28
 67 D0 9F 39 62 5E E2 98 12 53 7B D0 B8 E9 03 B5
 1B E5 F5 48 85 17 F5 05 DF 4C 97 6A 4C B3 4B D4
 70 38 3D A4 77 24 6E B5 8E 2B A0 E1 E8 15 3D EE
 7E 75 DC 73 17 C6 5D 43 D2 CD 76 9D 8E 25 02 8D
 BC C9 14 3D 7E 9E AC 9A 59 77 E6 4A FD 83 52 BA
 E2 68 B2 9A 6A 28 DF 7C B1 39 3C 58 20 46 47 D3
 70 F0 15 EA CC 38 92 76 05 0F E7 E7 D8 9A 49 E3
 79 BB 82 84 93 7B 4A F5 1F 46 A5 03 FB 14 78 40
 D9 F5 D6 9B 3F A4 DF AE AA B1 0C B1 A1 90 50 E4
 D7 B4 9C 73 26 68 18 F6 25 1F D1 F8 15 54 F4 7A
 EA 93 2D F3 A5 D8 5F CD E4 EF 28 52 53 DF 1C 41
 DE F4 D4 4D 49 63 8E E6 4D 0C 03 11 E8 1B 40 C7
 AD 01 BD C7 28 E4 30 2D 05 6F FA B4 80 D4 6B 4C
 DF A4 B7 41 E8 BF 6F 63 F7 CA 56 1B C3 DE 85 73
 A9 C6 A1 8A 79 49 7C B0 99 19 B6 3D 22 C3 7D E0
 85 C1 D8 8F E6 B6 F5 7F 63 C2 FD 8D CD 8B 5C 2F
 78 BC 60 D0 36 DA F1 87 BE 8D 0B D1 84 3C D4 8B
 C6 C7 B0 3B 1B 96 D7 79 72 1F D5 93 4B C3 8B 84
 B7 18 27 9D 79 3B 6D C9 5F 3A E2 73 47 A7 CA 8D
 C0 B2 28 17 E1 48 88 45 B9 8A 1C 6D 0D 68 C1 51
 2E CE 33 D9 DE CE 2B 1E C2 74 14 BE 41 70 24 9E
 46 A9 D4 D9 50 5E C1 6C A7 4F C9 6D EC 3C 28 B4
 CD D3 E2 EF F6 C6 83 39 22 67 67 E5 CF 2B 25 5C
 D6 A6 BF 80 CF D4 46 07 E6 2E 4D 6E 7F DA 09 7A
 39 C5 4B CC 3E 84 79 36 91 C5 8B 37 54 AA 5D A7
 02 D4 9D 3D 8A 21 96 87 72 DA 61 F0 AE EE D9 51
 DC 68 9E B0 92 E2 AE E3 DB FC D7 A0 65 38 22 BE
 1F E6 12 90 26 B0 19 37 C7 98 BC CC 57 08 3E 86
 71 50 4A B2 39 DB 57 0D 31 A0 37 E7 84 56 01 55
 90 2A 92 FC C0 34 C4 30 74 EB 02 D2 97 8B 35 B8
 91 E7 92 2C 40 B4 6D 33 7F EF 2D DD DA 4D 88 19
 BF 8B EE D8 9B E9 69 E0 B0 64 45 67 DC D9 58 6F
 24 71 25 75 2E 27 49 0D 69 CE 98 79 FA 44 7A FA
 8F 45 8C 2C BC F5 3B FA 0A 05 5B 52 F7 56 F7 9A
 ED 2C 83 07 60 41 2A 8D 0B 4A 4F F2 D8 2D 60 D2
 2D 6A 5A 3B 74 F9 70 D1 06 A1 33 CA 3A 7A C1 CE
 CB 2D 3D 4A 9D EF 73 89 23 BA 2F 44 1B 0F 59 10
 54 95 FB F8 5E 30 2C FF 9A 32 E8 9B 91 28 4C 82
 3F 88 B8 5C 49 FC 6C 19 AA 53 B4 21 36 A5 C4 0B
 A6 AD 3E 7B C9 C9 D7 82 82 3D 1E 25 7E 02 6D 84
 C6 72 05 CC CF 2D 99 84 A7 B6 05 36 97 D8 7C FC
 EE 35 C4 5B 38 48 22 6E C1 94 B0 D8 AB D6 F2 12
 8B 43 99 C5 7F E2 DE 19 DA EF C7 AE D6 84 6C 21
 39 47 3F CD 61 01 B5 6C 40 8D 1D 3B D8 A5 E2 85
 23 04 1F 8E 2D 42 93 32 DB 72 0C 79 77 F1 E8 43
 DF 44 B7 98 F3 17 46 C3 1B 10 E5 19 76 7B 54 6F
 54 08 B0 BD 1E F6 1E 13 5E E6 3C 99 30 AC A8 E0
 0A 44 A6 A5 07 DD BA 93 A6 3A 68 D5 09 02 5D F6
 BA 97 EF 63 48 5E 78 EF 7E D1 A8 2C 5A C8 70 D2
 09 6D 8C C0 F7 45 25 46 E3 6B A4 3D 84 10 39 19
 03 41 29 8D 24 CD E1 0B 65 E7 07 32 3E 88 F8 F1
 C9 28 99 A4 FD 23 FE DF 4A 72 50 C8 2D 28 3F 0D
 67 0A C7 44 72 0E 2A AF E8 D3 1F 83 4E B7 11 7D
 3C C8 D1 6A 5E 3F 34 72 76 D2 AA 5B FA F2 06 A2
 87 56 62 FF 46 F5 5B A8 7E 4F 42 4D 63 A7 0F 55
 3A 70 F9 7C 40 79 28 62 58 D5 C7 A3 60 E5 4A 02
 7C CD C0 F1 78 5E 35 98 A2 B9 61 3D 21 0E 0F A2
 36 C3 3A D2 1C A6 31 FC C6 0D 77 83 25 DA AB 8E
 29 6B EE 23 28 C0 FF B4 58 36 19 45 44 B6 5B 6C
 CA D5 73 51 9E 15 AF 7B 4A EE 0D 80 31 7D 4C C2
 29 AE 65 2B 7E 3A 60 A7 1E F4 4A 3D 7C 46 62 BA
 B2 8F 2D 5B 69 40 8D C1 54 61 2D 54 92 0E 45 A8
 2B 15 9C 64 D9 5C C6 46 BF 20 F1 A6 00 8D 8C 06
 3E 1B 52 BB 1E 53 4F 93 0B C8 BB 9E D7 B8 ED 77
 60 D5 06 CD 7B 32 7F 9D 3B D6 8F 86 63 04 48 AD
 B3 8D AA FF 64 85 0D 15 90 B1 C9 DB 0A AE 18 A0
 BA 72 1C A7 38 80 34 A6 6B 7D EA 1C BA 43 B1 72
 26 C9 1F EB 72 BD C3 19 6F 2F A2 84 95 3A 19 D7
 42 67 6C 18 A9 2A 22 85 5E 6F AB 79 1A 89 DB 74
 35 C3 42 AE D8 B6 61 4D 9C D6 51 7C 30 53 A1 B4
 AC 9E 53 77 4D B2 7F 3E 8B CD FB 50 48 9A 28 D9
 39 4F 5F 80 5D D4 F6 D8 0B BA A1 4D 5C 5B A2 68
 86 B8 70 43 AA B5 4C 3E B4 DF 7B 96 40 6A 01 CA
 75 76 C5 D4 18 8B 32 EB D0 2C 96 BD C2 81 BC FA
 E0 FB 8A C4 06 81 11 A2 96 C7 20 1B CA 58 8C 20
 12 34 42 1F DE 5F EF 5F 87 63 9B DD 4E AE 2E 75
 84 00 30 A9 D1 B7 A0 DF 78 96 7A 99 76 59 69 FF
 B7 A3 07 3F 00 70 77 4A A8 A8 9F 6A 18 58 04 63
 DE FA 84 63 4A 50 F3 47 F9 9C 76 26 E3 DD DC E4
 D8 43 16 EF 7B 42 79 6D BC EE 08 70 27 1F 73 65
 DF FF 3C 71 54 4B 35 C7 2F F0 6F 5B 87 BE 99 84
 6C 55 2F 8A B3 E2 1B B9 12 20 DD C9 03 D9 28 B0
 A5 8E 9F 74 C8 63 6A F3 D3 D8 10 8C F5 06 B8 82
 D4 51 2D D3 8E 81 46 1C F4 63 92 A3 2F FA 49 FF
 81 96 D7 0D 94 E8 75 E3 3D C5 3C EF 11 9C 0A AE
 F2 50 31 26 5F 10 E2 DB 16 52 F3 7B 16 8F 7A 30
 1B A0 E6 0C 29 16 92 E6 4B 65 23 29 6A D9 C2 34
 E1 5A 1D AC 4B D0 9A 1B E3 22 33 AA 06 37 DC BA
 1F 4D F3 1E 98 0D E6 89 28 5E 85 81 E7 99 8B AF
 13 43 44 84 54 C1 51 72 94 DE 9E 9E DC 69 E5 3B
 B3 CB EA F7 5E A5 D8 AD 6C DB 88 64 6A F4 29 3A
 B9 EB 54 39 3B 39 97 A2 61 BB E2 7F 2B 8E 80 74
 2B B1 59 79 6E 0D 8B 39 1A 93 8F E9 8C 97 1C C0
 A7 28 C3 38 5A 7A 29 7E 35 EA AB 03 49 02 C8 F5
 7D B1 C2 B0 00 02 A6 8C B7 5C 93 81 E5 51 FC A0
 E3 E5 3D F2 F8 1E 6B 63 7D 09 A8 8B 54 C6 93 C6
 45 F4 40 65 6E 0F 91 F4 89 52 D9 A8 50 52 54 25
 AE 44 47 AB 1D 56 50 64 CC 48 B0 D0 DA 15 A5 DD
 A1 06 F6 41 D6 A5 00 79 05 86 20 FA EF 21 68 89
 27 C1 DF A5 E4 E8 73 36 8B 1F AD 10 47 F4 B5 ED
 72 9B 94 39 24 B2 0B 5F FC F4 2D A0 AE 11 F1 6E
 6F A0 FB 0E B4 E9 13 2C A2 F8 C9 B2 00 DE B7 C2
 89 24 9A 1C 2B 92 D9 4F BC 4B F0 95 A5 A1 B7 81
 83 4D 24 7A 04 95 6C C6 DA C3 63 66 A6 14 6C F1
 C6 CF D8 1E 53 48 49 97 17 0B 26 68 98 AB 2A E6
 1F 41 6E E0 55 F5 4D 48 C5 C6 AD 98 0E 6C 90 B8
 6A F2 5E 50 3E 3B F4 07 6A 32 4D AA 3D 9F 70 83
 31 6E E8 9F 58 46 1D D7 C1 6E CF 78 F0 9D E7 CD
 77 C1 7B 14 C3 C4 CB D4 04 E1 FB 10 B6 47 E3 EE
 A1 7F BE AF 3A 41 1F 64 B8 F6 DA 10 7B E2 E9 FF
 38 AB 83 63 4E 3A D0 FB 6E 0A 90 5F 33 DF 1F F3
 7A 22 70 DB 74 43 97 7F E0 EC 0E 34 43 50 42 AF
 25 79 A6 B3 63 50 E2 11 9D BE D4 89 54 7D F5 AB
 F1 ED 3A 33 0B A1 A7 AF 8F CE B2 01 27 A5 FB B4
 08 F7 C4 45 3F 83 F0 D5 FC 3C 38 85 1F A8 1A A1
 42 52 02 44 7C 29 40 8C 06 27 04 A7 E4 75 19 4A
 7B 27 A4 12 7B B9 E8 7F 3B 2A 97 C6 79 39 80 28
 F8 A7 AF 5D DF 94 5F 2A 46 68 DF 6A 04 91 6B E9
 86 3F 03 AF A9 2A 99 54 EB BA 49 AF C7 1E EE BD
 2D 8E A7 32 68 82 46 7F F7 2F C3 45 13 4C C4 47
 0D 51 87 59 67 98 41 14 05 99 AC 16 EF 61 71 A7
 B1 E8 42 29 25 12 95 D2 21 8B 10 1A 39 4B A2 2C
 EB 08 27 EF F0 AC 94 6A DD 14 DA 3F 66 7D 60 B2
 F0 E2 E9 DC 3B 73 10 B2 BD B0 CD 4E FC 83 3B 6E
 B5 7B 84 AD AE DF 30 DA E3 A7 CB 3B 0E 0B 02 4B
 7E 41 47 7A 91 C6 BF DA 7E A1 EE 7F 4D 5A 14 7D
 B8 E6 C3 36 03 B2 35 0F B2 AC CE 49 BF 7F 91 F2
 78 53 D5 2B CA C5 D3 B0 C4 F5 8C 30 1D E5 ED DE
 29 28 A1 44 BD 0A 93 CF 67 D4 B4 8D 72 A8 46 D5
 52 F2 83 49 D1 67 81 6B A3 E3 FF 39 46 30 59 EB
 C4 C4 0D FF BB 52 CD 78 4F E0 E8 9D 6A 63 D5 B9
 8E 17 27 22 DD D4 1E 55 E5 A2 83 24 D0 67 4B BF
 96 08 E0 0F 19 1A CC A0 EF 0B 90 01 E8 BD C1 F6
 32 03 04 23 04 C0 7D A7 D2 53 16 53 90 D0 69 BD
 80 38 FC FB 43 84 F9 B2 F2 E7 71 A2 08 E7 C8 A1
 48 BC 7B 47 97 A6 95 4C 20 85 C9 33 F4 3B 87 ED
 E7 3F 54 D5 8F 9D 44 86 9B A0 06 AE 26 37 05 CA
 A4 B6 8C CD 6A 58 53 09 AC F3 05 BB 79 47 BA C3
 29 D6 6A CB E7 80 8E CB DE BF 43 34 C7 B4 D5 FF
 7A 48 88 2F 26 2E CA 81 F0 32 09 A8 E8 BB 7C A7
 19 21 2F 00 78 EC E2 19 E3 09 42 03 29 BB 59 B8
 22 89 74 3C 86 11 CA AE 3A 48 9A 57 22 01 9A 0E
 56 CD 17 D1 C6 AB 20 8D AD 73 C7 AD 71 08 D7 8B
 D1 FA 28 8F 63 9D 34 61 8B 40 2D 0C 50 3D 08 98
 38 02 05 84 4D 7C 89 1A 91 FA 2A BC 7B E7 6A D3
 A9 37 9E 1F F6 B7 C7 6B 75 1D A2 DE 6B 67 D7 43
 7D 88 51 9B 79 87 49 C2 00 A7 7F 5A DE 8C DE CA
 DA 5F D3 CB BB 85 66 BF C2 04 1D 21 04 73 B1 87
 D1 8F 38 B5 06 59 3F 86 59 D8 C2 56 A2 90 73 EB
 7B B7 02 EE DB 0B 04 8D 4B 85 03 91 99 99 92 8A
 DB B6 23 11 44 32 F7 75 F5 E9 2C C5 6C F3 3C 44
 8C 0F CE AF CC 93 D4 53 C9 C3 22 82 6C D3 EF 12
 EB FD FF 4F 07 A4 E6 28 97 0C 0D 2A 5C C3 E9 19
 70 2D D1 67 DE EC AE 9D D5 7A 79 0B 48 31 D3 BF
 AA E4 1B FE 3A 1D 57 0E 87 53 0C 8B 89 D9 10 2B
 31 7F 2E 68 81 91 5A 92 FC D8 C0 ED 17 CC 38 25
 7B 9F FB 60 F1 A9 90 04 9E 51 95 D8 86 45 A4 BA
 80 44 10 10 94 15 2F D8 07 C8 8E 20 10 4B 7C 7F
 6E D1 B0 02 B1 A1 F8 C6 BE DF 58 17 F9 9C E9 D7
 5D 43 88 23 8B EB 71 F7 90 8A 7C 58 63 34 96 91
 08 57 B0 D9 18 AA F6 D4 36 C3 C4 6E 91 83 9C 62
 4E D6 CD 58 BD 02 D4 1D F3 1F 49 C6 46 29 3F 5A
 C8 CE C3 5D 9C CF 2C 91 E7 2C A2 28 58 9F 9A 78
 6B 79 24 6E D9 AD 66 EB 5B B3 57 F1 14 0B 5C 59
 4A C4 07 CB D7 CE 3A 4A 91 95 D7 76 8A 01 7C 86
 4D 69 28 22 A0 0B 24 32 50 C6 90 4B 28 C8 F5 CA
 2E 46 B0 DC 0C 25 E1 35 AD 47 7A 8C CC CA 37 7C
 B0 80 8A 19 F8 DB FD 70 C7 12 12 F1 A3 54 8E 23
 64 8D 3F 31 53 F3 BF 2C 17 CE 88 54 5D 75 80 F9
 DF C5 3C FB 73 D8 99 30 59 DE 94 7D C4 2C 41 1C
 CB 53 55 E4 98 14 E7 76 51 4B 55 A6 BF F8 09 AD
 32 82 9B 0B 61 40 DB 87 F2 CC 3A 54 57 16 77 10
 FC 0B 43 E9 9F 9E 3C 58 1C 4B 1C 8D B5 8E CE 2B
 A4 24 0C AB C5 B5 B9 D7 AD 07 B1 97 95 17 A0 FF
 38 C6 39 64 F6 91 B3 D3 BC 81 1B 5B F1 33 D4 FF
 16 0E 93 C1 41 C1 BA 3D CE B1 EB 2D 3B B4 0A B4
 10 0C A4 4A D8 6E BB 14 60 85 B8 4B B8 D7 D0 98
 9D 11 D8 C0 77 98 1F 49 CB DB CF C2 C1 4F 9B B3
 F9 C7 65 EA 43 BB 2B 9E C1 C9 FF 5B 01 82 80 96
 1D 8A 19 79 30 0C B8 F9 B3 4B 38 E1 D3 EF 51 25
 AD 13 F7 18 C6 66 2C 37 FB DC 65 2F F7 D2 2D D8
 48 70 37 F3 8A 97 EE 1C 33 20 91 C5 C4 4C BB 32
 0C CF 87 28 A8 41 08 28 7F 58 78 80 D6 A2 B3 2C
 93 7F 84 7D 49 DA F2 7C C7 92 72 F9 28 08 8B 44
 1B E8 BA F2 BB 81 32 A5 2A A8 F6 09 EE 62 BA 79
 CC A5 2F 4A 33 65 D2 08 9D FB 5F 9B C8 83 00 65
 22 55 6A 86 75 E4 0D 8F E4 F0 42 AA D6 F9 6D AE
 00 60 32 B0 34 F6 B1 97 06 B1 20 91 03 20 77 54
 D4 F4 3F 2E 3A 56 1A 65 BA 4F 8B 8E 20 57 C6 F2
 1F BB BF A9 C8 6E 9E 18 08 AA 5D F2 2A 1F 8D AD
 73 77 8A 51 1B A7 1A FD E8 A2 47 32 55 C0 C7 DA
 9B 02 39 78 32 2F F5 70 69 85 D8 5D E2 DD F1 86
 CC 92 4E C0 AD 32 D0 D5 59 98 32 D5 EA 1D 77 CC
 C1 48 4F 0F 9B F6 1C 1A 45 6A 86 54 93 A0 EB 83
 24 7D 6E 4E B1 4E E5 CF 2C 8E EC 50 47 B7 AD 3E
 91 6A 5B 77 A2 38 C5 A7 5D 8C 0B CC 52 F5 AC EB
 6F 89 8F E6 74 EE 5E A2 A8 58 8E 93 96 76 E9 BB
 3C 07 48 95 2D 9A 82 C0 F9 7F 9F 09 64 97 E0 34
 F5 98 38 E1 BC 91 7C B7 10 39 BF F9 99 E5 A4 63
 A2 7C DF A6 47 7E 0E 72 17 CE B1 D3 D2 82 65 31
 95 B8 6A B6 ED 07 FA 8E C9 38 C5 DF AD DB E9 5F
 2E 93 6A 9F 76 DC 19 2A F6 BB 3E BF 12 A7 47 89
 B6 89 46 96 6C 97 E5 D6 F1 C7 C2 1B 9B 15 C5 38
 E3 7A 04 57 0E 1C 25 C0 07 99 20 B8 67 78 91 84
 AD B1 8E 78 C5 E3 3E FD 01 7C 63 20 18 34 51 02
 3D 86 1F 6D 9C A9 FA 49 83 69 D3 9B 52 3B BE 47
 93 80 73 D2 D7 54 C3 ED 9D 59 5D 6E AB 03 A6 11
 EC 47 83 CF 0A 18 AA E7 E5 DB E3 7B 8F 69 51 D2
 6F 2A E3 2D 6A E7 C7 48 43 1F F5 C3 62 16 07 6C
 D3 7B D0 40 C3 7F 57 6B D5 A2 1F D1 BC C7 63 95
 44 DE 3A 71 24 AD 4E 1B A1 C7 D9 47 7C 84 3B 8B
 31 C5 29 13 00 FF B2 3C
* End 2811351824 3576255185