* LTspice Encrypted File
* 
* This encrypted file has been supplied by a 3rd
* party vendor that does not wish to publicize
* the technology used to implement this library.
* 
* Permission is granted to use this file for
* simulations but not to reverse engineer its
* contents.
* 
* Begin:
 CC 90 C5 F1 9F 30 F6 88 98 BD 04 AB 0F A3 22 9A
 49 F6 C0 11 88 60 36 BC 7B 6C 25 45 83 51 8B 01
 49 31 47 94 ED C5 3B F6 9F 32 56 80 8F FB FF 37
 51 7C 3F E5 B7 87 B0 1F 3A 6C 69 AA 0F 9B 68 70
 51 77 C7 F3 54 5E DD CE 23 56 A5 21 58 23 2D 87
 FC 6B 9C CC 49 02 32 46 C3 E1 0B 9C B5 3B CC F8
 1E 25 F3 7C B6 D2 29 39 33 85 B6 BD C0 F2 BB 29
 50 FB D0 DB D4 71 7A E0 DA CC BC ED D6 8D 61 11
 98 4C F7 90 B4 E8 06 4E A5 60 1F 44 94 83 7A 2F
 77 0D 73 5E AF 20 BF EA BC 5E 6B 26 EC 42 21 56
 D9 84 CE E1 35 25 E3 CB 84 CD 16 64 EA C9 05 AD
 D0 F4 3E A7 2E 9A 4D C9 9B 3F DF 96 AF 4E 2E EB
 B6 D1 AD 6B A7 5E 87 C4 23 29 4A 1B BA 52 1D E2
 7F 5A F3 28 90 BA 9B C4 BF 07 85 80 F9 E7 9F 90
 22 77 C4 16 BA A9 FA C6 0C 28 C2 20 C0 7B 29 D8
 8F A4 50 D1 F3 62 B8 78 8A 2A DB 92 1B 19 E7 34
 42 F1 07 40 5A 60 87 D5 8F F3 07 86 AD 91 60 35
 82 96 CE C8 BC 69 B0 A5 48 CD F1 19 B6 87 43 B4
 47 7D 75 87 EC DB 46 22 05 0E 59 6D 65 76 74 8D
 05 73 98 1E 25 FE 46 83 22 22 BF 9E 03 70 75 51
 53 61 FD 7B 6C AD 04 00 1F B5 C4 3E 98 27 3A 18
 3A 28 9E F3 6E EB EE 90 C1 7B F8 B8 01 D4 3C 54
 13 B8 43 B4 1B 12 82 83 D1 86 07 6D D7 46 1D 89
 B9 AB 49 80 D6 53 14 CD 2D BD 89 12 3B B0 33 CD
 A6 A1 C7 53 F7 E0 43 BF 8C AB E9 07 3D FA 91 46
 F1 4A 53 E9 18 FC 95 4C E6 A1 F7 FC 61 52 7C 80
 4E 66 61 4C D5 F1 93 6F 52 45 29 6D 8F 5C 08 60
 89 AD 60 C9 2B D4 CA C5 60 15 D5 7A 51 07 1D 9B
 79 E3 91 20 F8 61 9C 62 B8 05 95 F2 A9 E7 39 35
 D3 22 C0 BC 7F 10 3A 28 39 4E 51 C1 9C C9 47 9C
 CF 3D 82 B8 AF 0D 99 32 91 9F 89 8E CF 9D 78 D5
 6F CF E3 24 50 97 F3 DB BA 1F 68 AE B2 2D 6F 83
 4F E3 BC A6 FF A1 DD 8E 94 83 E5 45 91 27 65 F2
 D9 8B 79 E5 10 7E DC 9D 54 22 97 5E 41 8B D1 70
 09 43 E8 91 7E 1E 22 03 70 60 F6 0B A5 96 6A 12
 3B 1C B8 06 B3 4B 4A BF 44 89 B3 13 3B 04 D2 92
 1F E6 0C 1B 36 0C 5B D5 20 82 78 DE A0 78 8F 86
 E6 1F 98 D1 08 7A 8A 73 B7 70 D1 59 7B DB 1A 75
 17 49 5E A5 BA D1 01 59 8D E1 52 AC 4A ED EB E1
 99 EF 46 7E 78 7F 61 BD C0 49 A4 BE A1 97 2A 3A
 72 0F A0 46 4A B7 FB 3B 01 60 C8 5B 32 D6 D5 66
 F8 FF D7 CF 9B 1C 11 51 66 96 C0 46 A0 DA 59 87
 1C 51 F9 1F 87 2C 6F 48 22 5A C1 BF 79 36 C6 DC
 08 A3 49 AC E0 67 7C F5 49 2F 18 92 7A 35 E5 3C
 DE 33 AC 31 44 B4 D0 46 ED 28 1F 87 85 44 42 7C
 E1 68 B2 AD 05 06 F7 52 33 A8 77 E9 99 E2 A2 06
 3B D9 F7 A5 96 05 02 41 34 E2 74 EB CB 98 87 1B
 80 EA D2 8D 2C 4D 43 57 A9 51 47 60 06 AE AA ED
 57 BC 1B 93 D1 BC A8 7F 47 CB 66 00 FB 63 88 4E
 30 8C BD 0F EF 2D 15 99 C7 18 3C 9D 97 D3 18 AE
 DE 99 74 5C D0 7A 0D ED 8E 46 03 64 22 96 C4 B4
 75 67 B2 1C 8B 54 BE A6 E5 11 D9 A6 2D F5 CF 8A
 84 0F 56 C4 FA D5 A7 0F E9 E6 B3 67 D8 17 F0 DD
 AD E2 3D CB 3A B7 5A DB A4 E7 A9 0E F4 F9 F5 D3
 88 5E DA E6 2C B5 51 E8 E3 68 B7 FB 77 48 2D 09
 B8 12 64 BB E3 07 7C B8 AB DF 0C DD AE A2 AB 22
 1D 56 8E 9E 56 B5 05 31 A6 67 7A F5 47 A8 AA ED
 22 77 FA 7D EE D9 DC E5 75 44 C5 28 1A D5 0F 2E
 40 7F BA 42 B0 E3 73 E6 A3 CD AE 0B CE EF 55 82
 2A 76 5E 72 90 13 5F E5 FB 0C C8 60 BC 9D 0B 10
 25 26 C7 6B 39 D9 47 06 02 80 54 77 AE 85 61 F3
 5E 3B EB 34 76 D9 86 BB C0 FF D4 60 F3 A9 95 78
 AA 10 A2 BE 9F 7C 2E 1D 56 FA 2C CF FB B7 B7 FA
 2A 8C 29 11 1B 2D 85 32 40 74 9D 37 85 5F 27 59
 1B 46 60 B5 76 C1 9A 3E 71 F5 7F E4 0D F3 AD EF
 CA BF F2 ED 08 F0 8E BD EE 38 E3 A4 7E DB 97 C2
 F6 02 59 D2 7B BA C4 15 4A 98 0C DC 70 5C CA F4
 40 26 B5 3E 67 F8 31 69 08 CE 7F 8A 39 E9 87 37
 5C 82 C0 84 46 25 83 BC 9F A5 66 0C 9E 9D EA CE
 89 27 6C 76 1E E3 FE D2 61 41 00 F1 FA 6E B6 13
 25 D1 A6 EE 00 F9 EE D6 9A DD C6 00 4C A8 0B 95
 BA 5D A4 BC 25 C5 69 79 B0 B5 A5 99 D2 39 8D 51
 49 4C B2 89 A6 31 A4 F5 DD 9E 82 1D 2F 1D F3 04
 9F 07 92 6B 10 BC 0E 5E 73 F8 5B 01 62 84 4B BA
 D3 32 18 FF 7F 6A EB 36 9A 1C 7A 96 F0 82 86 6D
 17 E4 F2 BE DD A5 84 87 9C 52 49 EE 43 FA 6F D5
 C7 D4 D3 EF DC 68 20 37 43 F2 FF AF C2 12 E7 D3
 A9 C7 61 BE 25 D9 21 85 56 1F 31 75 CC CB 0C 4E
 1B D5 88 80 79 50 AB E1 1A 04 36 6B CA 5C 94 39
 66 96 15 9E 04 12 F4 7E 12 00 4E 64 E7 64 CF B6
 BE 13 DB FF 0D 61 42 52 A4 A4 7C 76 9E 9C D8 4F
 0F C7 3F 9D 68 10 62 62 BB 48 BF 4A 7C E5 B6 32
 5F 28 10 D2 C9 17 A4 BF 9E 19 51 88 E1 F0 D2 50
 D6 FC 17 34 B3 CF 18 D3 3E 2A DA 17 BA E8 74 34
 07 AB 82 81 CB 51 14 3D 36 3A 49 6F D1 D7 59 8A
 AE 2A D7 EB 76 DC 02 F9 B0 BE 90 29 06 AF 00 26
 F3 3F DB E4 72 32 FA 80 92 66 7E E3 C1 3B 3D AC
 A6 23 2E 7F 2E FE C2 B5 59 28 7F B4 9E 06 3A 91
 90 10 CB 67 6E C5 8E CF 34 0C 83 E4 34 C7 DD 47
 43 9A F8 50 D0 E8 86 54 6C FF 16 7F 2A B8 BC 09
 32 61 3D B3 90 A6 6D 24 01 99 8B 2B CB 8A AF 0D
 F8 C7 48 69 68 8F 3B CD 47 6C D5 23 E9 6A 9E D3
 A4 81 2A DA 33 84 1C F9 1E E9 9A 66 5B 8E 97 6E
 AA 33 28 C7 98 C6 25 09 D0 1C 38 2F D1 87 C2 D2
 65 C3 A1 50 67 1A 5B EE 47 49 7A A9 6A F0 6C C9
 0A BC 7F 34 34 BE 92 D5 AC 8C 2F FA C8 39 AD B9
 85 C4 D0 33 C3 07 D9 6F 9B 8C 41 DF 7C 4D 4F 6A
 F5 AA DD 80 56 F0 AA 54 04 77 15 87 A9 52 8F 08
 B9 58 7D B5 46 A6 AE 29 C7 16 86 06 03 CA 15 BF
 09 87 F1 63 DA 07 29 B1 2A A8 38 84 34 80 21 24
 20 8B 21 0B C6 34 78 BF 3D 6B 19 9B 3C 3E 53 3C
 37 1E 89 48 0C 32 FB EC AE 67 61 D9 AD B5 0A 55
 7A 00 05 84 FE 71 AC 8F 9F 47 71 C3 86 83 4B B0
 D0 C8 B2 D9 CC C8 75 A7 1A C6 97 9D 15 9B BB CF
 41 C7 16 FE 90 67 53 C3 FA 86 C5 D7 3D 1C 79 DF
 18 BE C1 C4 C2 70 AD E5 D8 DF B3 6E E7 AE 36 C4
 EE 40 6D B3 77 F9 7C 68 05 E9 46 79 45 9C 97 91
 80 42 27 BF AF AF 97 7F F4 E4 37 26 32 10 88 AF
 9E 2D 0E 18 66 3F A9 52 0F 1E 7A 32 13 4E 00 D9
 EA 55 A1 30 AF B4 6C 4F F2 7C B0 1C B4 CA D4 0F
 16 7E 90 6B FE 64 30 58 F3 50 EA 6E 93 B0 AB DC
 11 20 54 98 B7 51 73 1C 69 B5 6A C4 5A BB 1F 7E
 F0 6E 47 1C 4D BA 69 EA B0 5E 5E 1F AB FF BD BC
 91 EB 52 27 43 04 8B 9E D3 C2 F9 53 91 C5 1D 70
 80 7E BC 96 90 E8 D1 B8 8F C7 D7 66 DB 95 61 41
 C6 A2 9A 21 25 88 CA 21 64 02 5F 84 91 66 9A 6F
 F0 DA 2C E8 DD D1 8D 10 F5 E3 98 3B B5 1A 38 F6
 77 DB E7 22 3A 80 91 0A 7F 50 51 55 1B 0E 98 7E
 F7 13 95 5F 1C 7B EF F0 CA A9 80 F0 BF D1 2A 1F
 31 7B F6 09 A7 D6 A7 8B 6F A0 AA A0 7D 51 36 E0
 DA 85 8C DD C5 6E 65 D0 FF 0A 68 14 12 6D 65 8E
 B9 50 E8 9C 77 E0 52 6D 00 1D 62 80 B2 C7 E6 EB
 1F 46 58 2B 26 FE 41 E3 13 E9 C7 AC 7C 52 DC 80
 C9 D3 6B 2D E9 3D 61 8C 10 99 D0 76 AC 16 A8 34
 82 0E D1 2A 43 1B 90 2E FB 63 F2 96 33 1E 1A 5E
 A0 6D 1B 0D 01 DA 3C 0A 6A 50 45 4C FF 04 EC 58
 BF 00 E0 A6 7E 16 38 BA FE 3D CE 1D 2F 49 BD 86
 9F 08 40 05 17 6C 22 5A 4E B4 82 26 FF CA E2 6F
 9F B4 01 4E 63 08 8A 5A 76 57 DB D9 4E 50 30 55
 C5 7F A7 AC BD 9C A1 46 49 B8 CD 15 DD 98 E1 A4
 3D 7B BE 9F 1B DD 94 C3 45 25 94 4C F6 5C C4 3C
 14 54 9B 7D EB 7B EA 8F F5 51 D1 B5 8D 25 D7 50
 BD 6E 5C B2 E9 29 C3 F3 4A D7 52 FD CA 52 C6 95
 34 91 8C D2 90 3E 12 4D F4 D1 1E DD E1 F0 DB C1
 5F E3 FF 18 3D 61 1C DA E4 8D C5 B8 99 58 C3 6D
 A2 DC 17 8F 3E 56 C3 8A 7B 4D D7 A5 CC F9 37 26
 19 B3 66 B5 1F 9D D8 36 E1 C5 E5 DD 6E EE 9C 89
 03 9C 5D E7 43 BC 42 5C 20 8B 3C 97 A2 CB 08 DB
 62 14 64 D3 1A DC A4 1C 1A 98 52 78 E4 0E 30 01
 75 CB 38 71 68 A3 45 5B 5A FA 49 DC 4E 68 A8 74
 B1 A2 A4 FA C3 07 74 5F 7E 18 AD A3 65 D2 55 9B
 03 55 15 E6 FB 25 92 4F FB 65 A7 A1 62 2C 8F A0
 AF 08 73 D7 2D EB 0D FC 50 2F 2F 37 2F 9D DD 23
 6F 1B 23 A9 47 2B A5 C7 EA EB 6D 97 C4 D4 52 8C
 78 9D 6B FE 8C 66 2C A3 E9 BB 7C 2E AD AB E7 5D
 8D A2 28 73 39 F9 E0 C2 D4 76 23 20 D2 E5 62 B3
 24 D4 93 F3 51 33 E0 2F 83 57 9A B4 E5 89 68 79
 64 BF 36 57 43 31 78 72 51 8E 98 7F DE F9 12 1A
 23 68 5C 8A 91 83 06 EE E7 A9 CD F4 1F A2 99 02
 5D D4 C9 BA F5 88 0C 65 08 C2 0B 03 4B 6C 64 92
 34 6A AC 19 B7 45 F4 8F C6 2D D7 5A AC 7F 09 05
 8B 23 23 84 AD 33 35 C5 3C 6C D7 65 4F CF 2B 3D
 61 AC 12 9E 76 CA A6 88 79 C6 23 10 BF 09 9A 97
 3D 41 EF 67 6D F1 7E 49 48 78 56 C9 8A CA CB 15
 82 28 AE 5B D2 8F F8 F0 91 C5 1C 87 81 E5 14 E6
 DA FF 38 3A 0C D8 5A C6 02 7F 1D CA 45 49 4A 41
 67 BE F1 CA 60 43 79 31 50 C5 C1 4A 89 F1 DC 99
 8C E0 12 65 02 8B 28 5A 0A C8 1C 8B AA 20 E3 A0
 37 AB 8D DF 5D FF 34 2F 9B B1 D2 23 8D 6C A0 0D
 72 AC FE E0 1E 35 41 B1 1E C1 5F 2F 42 4D EC C8
 3B 6C 1A E4 52 7A 6E A2 1F 37 CA 7D D3 3D CD D1
 07 64 4A 5F D0 FC 2C 72 F3 06 8E 71 6E D1 76 4A
 34 1D 17 FE 7C CE B8 B1 08 03 A2 A3 CD E5 5E D7
 D3 12 FF D9 65 01 8A EC DB D7 6D 50 2B A7 8F 01
 F6 68 6D A6 C8 5B D0 8B 0A E9 F7 15 07 BF C0 C6
 50 7B 79 6C 95 24 7F E1 36 44 3D F3 11 24 52 AD
 2F 38 78 4D 75 2E 69 10 62 08 64 EA ED 91 7D 82
 13 51 55 D5 3C E2 EA 42 33 C5 5E E6 60 F4 96 FB
 00 75 0B 13 AF 2B 21 93 5F B3 DB A3 F7 DD B0 F7
 5D 0C C6 3F A2 3A A4 16 CB B3 C3 85 43 38 1C DA
 8E 49 08 98 FF AC 21 6B D8 11 05 AD FE C6 6B D7
 20 08 EC C2 16 48 ED 48 EF CA 68 08 B4 22 6D 6B
 10 91 D7 43 2D 4C 9F A6 01 8F C0 B6 2F C1 19 91
 87 4B 61 D0 92 A9 5A B6 73 36 38 AF F6 DD 80 88
 1B 77 21 AE DF 31 DA 9C 32 1B 64 DA 82 8C 10 E0
 AA AB 44 25 F5 83 9A B8 56 9D DF 44 F0 4D 38 0D
 4D 04 54 A4 37 96 B5 14 0C C7 6D 58 52 12 70 54
 DA 50 7C B3 D6 65 59 4E EA D2 2E 84 76 2D 4A FE
 C4 8F F5 AE 67 04 24 6A 1D 2F EC 86 6D D4 E8 66
 9A 71 F3 89 78 3B FC A5 76 B7 A8 95 AA AF A4 B0
 2A B1 7F 24 B3 D8 21 3C 48 EC 77 F7 4A 08 4E AE
 71 1F B5 C4 62 F8 DE C9 AA A7 34 22 E0 D0 9E 9F
 53 9F 3C 84 A3 BF 9B FC 1F 37 4C 02 BB 47 D0 F1
 0A 57 FA 78 2A 0C 88 E7 A7 D2 0D D1 15 75 8C 71
 57 34 B1 C6 A5 E7 6E 44 D6 11 10 9D 74 70 02 82
 31 53 A7 96 7E EB 19 46 CD B5 1F 93 02 B5 B7 1A
 EF A2 89 2B 97 8A 55 CC 30 65 4C 34 D0 ED C0 C4
 22 70 2C 2B C4 02 C4 07 39 7A C4 22 BC 0B FA B6
 37 DA FC 33 80 18 A1 33 C0 F8 72 13 AA A4 B4 A7
 20 F5 CF C3 25 94 61 4E 93 3B BE 0F 65 CC FA E5
 97 3B C8 43 E5 3F 8B 08 C7 5C C1 16 39 4C E5 37
 E7 3C 6D 98 63 75 2A 24 90 78 C7 C4 6C CC 3E 13
 E7 2B D1 E3 78 E3 49 A1 7E E9 F5 8F A5 43 2C C0
 C3 4F 0B 93 BA 37 AF 97 F2 05 DD 7E 4B 33 BE 67
 9A C7 26 BA 2E DC 47 D7 95 2C 09 3D 5D A4 38 CA
 94 83 2D 25 2A 04 91 4A D7 2E 25 9A B1 01 82 95
 8E 4E 3E BA 05 78 B6 9B 5D 2D E8 3C EA 71 2E F0
 61 0F 20 0E 16 3C 75 56 24 6A C9 D3 0E 5E 86 4E
 DF 4A 42 87 51 5B 2B F9 B5 20 DD DD 98 40 0C 94
 21 CE 3F 40 23 FC CE BA F7 C8 FC 25 10 D6 9D 80
 41 7D A5 DF 32 5A 06 FC 22 52 13 85 72 7D 03 2E
 AE 73 6C D0 64 77 F6 E2 5A D5 A7 9C DC 6C 3A B3
 E7 E5 F7 77 EF DC 4A 62 0C BD 88 0C 31 97 8F A7
 36 3D 26 88 81 51 76 20 66 2A E7 99 D9 E3 D8 0A
 8D 7F 38 7A 21 B0 07 6C E3 69 96 AB A1 97 FF E8
 00 BA FB 4C 5A AF C9 E4 A1 84 A3 86 A3 23 01 57
 89 3A D4 DC 24 54 E3 26 16 08 6D A3 D6 ED 81 CC
 BF C0 56 C5 7E 97 CC 61 8F 4E 4E 1D 41 38 C1 87
 7B 36 0D BB 1A 05 57 2E 01 A4 E7 62 EC E8 CE 1A
 DA 1A 40 80 08 EA FE DB 58 A0 CA 2F 5E 78 EF 31
 23 88 85 6C 26 19 11 2B 46 B2 9A D1 60 E2 A3 20
 E5 8E 14 33 86 99 98 15 17 34 86 C5 5D 29 DC 3C
 B4 07 F6 49 3A 20 F0 CF 37 7C 88 C4 08 2B C3 86
 88 56 43 6F 77 5A 8C CA F1 4B 1A CA B9 A7 44 02
 C2 B5 C1 1F 80 3C DB 57 08 F8 77 01 F9 BF F3 3F
 71 1F D9 33 9C 4E F0 F7 1D 0D A1 17 6B C1 93 C4
 5A 9C E7 7E 97 72 30 D9 66 13 5B F8 B4 FA 1D 59
 96 AA 93 06 78 64 CC AA FF FE D8 19 2A 7C 62 2F
 11 F9 59 36 D4 94 16 B5 87 77 1E 68 44 87 64 93
 67 C7 02 E1 61 32 A4 B6 B6 57 4F 25 E7 A6 7E 4B
 E8 7C 1D 31 19 CF 08 6F B6 49 B4 6C 02 CD 28 A6
 8E 7B 45 D7 F7 A1 B4 63 85 7F 5B 58 8F AA CD CD
 2A 20 39 EC B6 65 C0 77 56 D5 87 6A 04 2E F2 02
 D6 2F 62 C6 BE 38 B9 DA 31 69 21 CE D2 71 83 3D
 3A 73 89 19 07 9D 45 03 9D 9C 9B 26 4B CB CC 9A
 7C 55 E4 C6 2A F2 0D A9 93 96 F8 7E BA A6 4D C4
 E3 D5 0D 7C 3D DF 67 CD 8E 6B A2 18 12 74 86 7B
 87 65 C9 2D 3E 20 FD 78 C8 3D 62 E1 CC B6 EB BF
 28 48 DD 1E B0 90 BC A5 AF 20 E8 0B A6 89 6E 64
 8D 0A DF F0 A9 CA C6 4A 96 2E 0B D5 5B DE B0 80
 17 6F FD 54 92 C0 61 BF F7 CA 8C 08 A2 A0 B2 AF
 58 4C 34 8E 31 F0 39 47 0C D6 3D 5F 55 20 FA F6
 0E 25 36 68 28 87 26 5B 7C C0 CB 6E 88 37 92 D2
 EA B7 36 F0 7A 3A EF 11 FD DB D4 44 96 D4 9F AB
 88 2B 2D 0A 85 FA F9 64 A0 42 25 DB 91 C4 7D B2
 8D FE 0C 5F 2A 97 66 A7 D0 0B FC 30 D4 4D 92 89
 0A 0D 66 9A 06 A2 CE F6 22 C8 78 26 DC FA A5 DA
 0A AA C0 F4 E6 F1 C4 20 69 95 81 FD DF 67 A5 2C
 E1 C9 E1 C8 44 F7 B8 9B F5 9D 7B E3 1A FC 63 89
 A7 CA 24 81 82 57 50 C0 76 83 15 A0 96 B6 56 30
 86 C3 D0 73 3F 36 5F EE 61 61 75 75 35 2D 3B 9E
 68 A9 8B 49 DA BE 8F 19 DF FD 5D 90 B4 F8 80 42
 D8 78 6F 5E FF 48 90 85 8D BC CC E2 6A 92 9E A6
 2C FF E5 DD FC 66 52 74 41 E6 63 5F 87 63 EC 7C
 9D 72 6C 65 3D C2 0B B2 C7 67 E5 92 5B B4 4E 29
 95 DF 5B B5 C8 DF 1E 51 E8 16 57 CC C1 58 ED 6F
 BC 42 64 3F C9 E8 3F B6 C5 72 80 1F 1E 4A 94 81
 DD 71 37 BB 38 BD 40 ED 38 FD 10 68 7C AE 2F 99
 79 5C 0D 57 97 A2 1C 36 87 52 61 1E E3 E4 1E 2D
 4B AC 50 34 98 D1 0E CA 75 E9 AA C7 3B B0 CE D2
 B4 D3 26 E7 61 B0 1E 75 B3 CE 61 48 CB 89 20 F7
 E2 AC C1 B3 34 3A 2F 71 8D DA 1B 05 D7 3C 9B EA
 4A 29 3B 9C 34 48 35 B8 71 99 82 7E FC D5 8C 35
 0F 1D 4C 11 87 AE 60 CB 84 70 57 66 76 9E EF FA
 17 96 8B 67 82 D3 3A 41 11 86 EC AC F9 10 14 F8
 DC 54 DA 44 D3 97 40 58 23 9C 9E 76 B8 18 6B D2
 A4 E7 BD 4C B2 1A D8 7C C7 C5 48 EC A8 B2 47 99
 35 0E AD C8 AA EF BC 45 F9 E7 EE 5B A4 66 0E 47
 28 25 A7 4C 38 DA 4B BE AA DB 77 3D 59 E0 AF F2
 B3 27 BD 66 0A FC 32 2C 82 BE AE 7A 14 48 D5 40
 B2 FC CB ED 33 E3 81 22 09 DB 22 B3 0F 0A 4F FF
 15 49 88 19 4E 5A AB A7 10 21 60 F9 A6 61 D3 A4
 44 E3 B8 C7 9B B4 2B CE DA BE A0 84 BB 63 CD D5
 BC DD C0 22 05 BC 86 30 8E 88 6D B8 C6 8F B2 F7
 4E A8 C7 10 D5 A6 C5 F2 5B 7E 2F 24 6E FE 00 E0
 E8 33 7B CE BB E1 A4 1A AC C4 10 39 A4 D9 D9 D1
 65 7E A0 25 C7 68 54 F5 53 DE C1 1B 75 A2 73 F2
 CF 64 D6 7D 65 B8 07 ED 2E 38 E1 8C 4E 11 25 59
 56 36 CC 55 7E BD A3 16 4C 19 4E 55 B8 F3 FC 8C
 73 71 F9 FF E5 E1 6C D4 29 0E 6A 3F 2A 1C AE 99
 04 07 7A F4 3E 35 42 03 FF 4C AE 20 BA 47 5A 0E
 B2 55 D0 6C 76 38 2D 8C 99 4A 92 CD 31 43 68 1E
 F3 6D 5A AD 67 C6 6C 66 DC 69 1E 70 09 D2 28 0B
 E6 C9 5A 35 47 49 B5 2B 91 1B AC DB BC D6 19 EB
 C0 CF 4C 63 2B 91 83 24 8D 01 2F 32 D2 B6 EE A1
 CB 92 5A 3A D4 DA CD CF 19 CA 57 CA CD 7B EA 24
 FC 84 E2 41 D7 E3 50 80 DB 1A 9D DE F7 37 AE 47
 2E BC E1 74 7A AB EC 16 06 08 28 9B D9 2A 1A CE
 55 74 7E 6E 49 FF 5A 44 B6 31 77 AF A1 15 D7 54
 75 6C 09 8D 5C FE 92 47 04 D6 6F 0A E6 60 ED 65
 E5 F8 29 EB 75 1D B2 21 3A A7 1D 1F 80 BA 6C 4D
 68 A9 D9 27 3B 9D 11 0F A7 2D 61 2C D1 18 82 ED
 B7 C3 51 73 5B C2 49 48 8C 52 11 60 44 B0 DA 47
 E3 51 50 BE DF 97 E7 C5 E6 4C CE 8F 87 09 05 C7
 C4 0C C9 2F 88 64 64 0E 37 CF 01 8D 76 4C CD 5E
 27 C7 21 0B 61 EB C6 14 DE DA 6F 69 15 AB EB D4
 24 D5 D7 CF 28 AC 38 FF 35 53 B3 E5 B3 CD B1 76
 32 30 49 4B CC 9F 0B A0 8E AB 33 B4 16 A3 D2 BF
 88 B4 22 07 8A 46 6E 3D 1E 68 58 DD CE DB 6A 29
 AC 9B D2 1A 02 5B 18 0F BD E3 F5 06 9C 48 74 89
 B3 EA BD 1B 5C 40 8F CA 60 D1 BB 90 F4 A8 29 4B
 A9 FC AB 81 4D 53 72 63 72 2D 8E 3D 69 C1 9E F4
 F1 99 93 42 EF A4 40 07 98 12 83 51 70 89 9C 1B
 AE 81 1B 33 45 95 99 C6 27 DA D1 A8 86 5B BC 98
 05 4C F9 04 BD 97 01 58 8F 55 3F 72 CB 97 4E 47
 E8 3A BF 0A 17 3F 2A CD 28 0E 8A 6D 42 09 EE 61
 AD FB 10 FE 39 1E 4D DD 61 83 A3 CA E7 74 38 10
 27 C5 91 EB 11 9F BD B6 37 76 AC 18 CF 35 50 E8
 9D 9A DD 25 3A A0 7A CA 4D 34 10 AE 7F 11 FA 0C
 D4 F8 6D E2 9F 27 96 9B 0E 5A 14 06 AA E9 7B 4E
 FF 5D B5 DC C8 C4 A6 88 3C 1D C2 5F A7 18 D9 C3
 30 B5 E5 36 3A 8F 3A 26 B3 D8 F9 70 81 2E 19 C3
 25 F7 79 CB 67 7F FB 7F 15 EF 1F D0 25 4C B7 A7
 F0 66 74 46 DE 6B 63 8E 9A E0 0F 25 D1 7B B6 E0
 8F 9E 66 37 82 AB 48 76 C2 05 80 33 F3 D3 01 5B
 37 73 72 74 00 2F 06 ED 12 77 D3 B0 AA EF 8E D5
 AF C3 77 BB F0 02 8E DD 9E 19 A0 6F DD 14 29 0E
 B5 60 84 E5 B0 E4 42 18 8C E8 A7 94 AC 28 5F 23
 23 8E 5C 33 92 3B C6 C3 8C 3B 90 E8 7E 37 DE 97
 C4 D3 7E DA 30 3E 9F 05 F7 89 E9 64 B1 CC 2E 8A
 65 5A D1 9B E6 21 F5 99 AD 33 AA A5 F4 8E 95 18
 73 0F 44 1C A0 E6 D2 B5 7F A4 63 99 44 51 81 C7
 CF 51 D2 B2 15 9E D4 87 78 0F E9 E4 25 2E 6E 63
 52 2A C8 12 65 60 30 3D 97 FB 91 2F 05 B2 BC C6
 AC D0 B2 F9 73 BB 7F 95 FC 8D 0A 74 50 CD 3E 11
 A0 1C 1F 4F 35 64 FE 95 C8 8F 17 5D CE 15 5A E3
 9A 3C 8B F4 D6 0D 66 FC 0A 77 90 13 94 C2 7E 34
 1A A1 5C 82 E8 44 BC A1 F3 24 83 93 CD C6 BA D6
 1A A3 1B 9B 82 F5 06 2E BE 8F 2B 2D A7 BB C3 37
 41 BC 3C 49 56 72 64 25 1E BF 42 83 30 7A 96 A5
 01 02 89 F4 21 6E 59 6A 08 C7 BD A7 DC 92 67 96
 CB 98 30 8B FD A0 FB 78 24 06 91 69 54 DF 40 63
 56 15 1C CF 6E 7C 5C 96 80 43 BA 21 DC EA 3E B2
 62 61 C2 52 4E A6 08 E2 06 49 E0 A6 D2 20 2A F9
 CA AD C4 92 F3 DD F7 86 65 2D 2D DA 6E F4 54 CB
 B5 4C 21 F5 8A F5 7C 0A 2A C9 DE 50 F9 66 26 26
 A9 C5 0F 91 16 40 FD 0C CF 37 79 10 9D E0 25 63
 86 45 45 64 2C 8D 29 99 9D 28 2D 33 08 A5 4B 94
 C7 80 19 63 5B A5 27 97 A6 DB A2 33 60 18 AB C0
 8B 0C 59 8B B4 72 25 45 8D 40 4E 7F 0B FB CB B6
 19 B0 DE B4 0E 17 17 D3 6B 14 72 BE FA 32 84 E5
 27 36 57 B4 93 82 0D F7 AA A7 63 3C 38 98 CF E3
 92 04 88 5D C8 ED FA 66 18 C7 0E B1 C9 D5 54 BD
 AC 95 B3 51 70 BC 5F 4E 1F 72 48 83 34 EB C1 63
 C9 50 36 D4 8C 1C 56 6D 98 DA E7 66 BD FE 05 61
 40 B6 4D 03 6D A0 8F DF BA 7F EF 6F 98 3F 65 B4
 ED CD 9A 95 48 A9 F3 8A 55 CF 52 A6 B4 97 3A 44
 28 8C 59 4A 53 F8 E0 F9 C8 32 99 32 98 DE 1D BF
 8A F1 5F B9 E3 E5 D3 F2 BD 33 C8 F7 E6 D8 79 1B
 0D B9 06 80 7D 39 F7 7E A0 48 81 45 8F E6 4A AF
 7C F7 95 02 54 BC 06 60 53 8B C4 3E 2A 90 F9 7C
 E3 96 E6 A0 D7 8A A5 5C F1 58 70 0D 12 EF 11 06
 AA E3 45 7F 67 AA DB 46 BA E4 90 3C A1 7A 4A 57
 AB 3A B3 C5 F7 49 8E 51 FB 97 E4 61 0D 70 BF 8A
 90 18 51 C7 7A 84 96 EC 7B 0B CC 32 1D FE C0 16
 10 3D 9E 76 02 C9 39 7F F7 BF 24 50 84 6D 3F 82
 C3 5F 33 4F C2 19 8D F3 D5 C9 E8 0A 8B 27 97 41
 FC 18 47 42 70 F8 E6 86 74 61 7A A0 11 29 52 AC
 FA 93 AE 31 C9 79 22 38 2E 99 93 23 9D 36 D2 FE
 65 92 33 6A A5 43 A7 BD 3D 1F FE 91 D5 91 2E C5
 14 76 EF 2F E5 DE E2 E8 9A F5 D9 9E 98 07 11 D1
 1C 1A 86 12 95 47 3F 84 78 26 40 A8 F3 B6 34 AD
 8D EB 99 81 20 99 CB F9 6F F2 B6 29 D7 FA FE 17
 29 A0 CB 7F F8 E2 2D 48 D6 D9 57 87 D9 35 26 0D
 C2 DA 97 63 A1 76 A2 F8 66 BB 4B 9C D8 EC 85 BA
 B6 B7 A9 AD E7 5B 0B D9 BD 9D 23 4A DE D0 F4 AA
 9A E3 BC E0 30 F6 03 C7 A5 A4 80 96 00 35 81 9C
 3B F0 A7 52 85 C2 F2 4E 58 B6 E8 93 F8 B0 50 88
 A7 D0 1F 67 18 B9 DB DA A6 E2 78 A3 48 3B 80 9F
 AD B1 53 C8 0D E0 B6 A4 61 98 C9 6B 7B 0E 05 42
 A9 B3 5E E4 10 34 97 07 CA F0 40 05 19 88 56 F7
 BA 0B 93 8E FD 18 04 0E 31 40 99 BF 50 10 AB 24
 37 70 2C 76 5A F3 A5 F5 30 BC AD 0C 10 B3 23 C3
 BC 98 8F 42 86 F4 FE EC 2C 67 4B B4 00 65 D9 70
 E5 73 8E 9A 93 60 17 10 C0 61 C1 20 F5 DD 46 12
 67 59 32 40 5A E3 57 AD 82 39 21 5B 40 74 62 7A
 49 A9 82 A3 64 69 84 AF 36 56 98 F5 3F 36 B1 10
 20 B3 FB D7 71 E7 C1 AA 58 0F 90 62 5B 09 77 FD
 FB C7 CA D1 75 9A 44 51 67 D9 7F 55 DB E2 B6 3A
 EB 19 83 86 1A 32 D3 7D 75 85 A4 72 7F 4F 5A 3C
 3E 4E C1 07 D4 A6 5F CE 54 DE 31 37 A1 07 2F 30
 8A 4E 70 5F 9C 68 44 B3 B9 D1 34 DC 6A 4F 37 85
 AD 6A 67 33 7C 5E 16 FC DB 9F FF 50 FC FB 72 7B
 47 FB 61 2E B6 C7 20 7B C3 1E 70 5C 8C C6 93 2E
 F8 FB E9 C3 F5 71 67 6F 06 FF C5 1E 81 80 1D 27
 FD C7 94 95 7E 0D 5E 99 24 97 11 EE C4 2F 8A E5
 F8 85 55 B1 8C B5 21 8C 04 DE EF 4A 14 66 F1 14
 2A F2 BF E9 76 FD 7C 75 52 3A 8B F2 3B A9 B1 5F
 C7 6C 4B 89 0B DA 25 B2 CF CA FD 6A 5D C6 DA 27
 C2 48 0E 3C E3 91 DD DF 7B AC B2 CB E9 6C C9 FA
 23 65 6C E7 6A BE 00 D5 39 DC F6 48 5B BD 1A AB
 2B EE 19 4F E8 EA 94 4B F8 D5 96 69 AC A0 D0 34
 9D AC 8F B7 14 E1 4A 08 8C B6 58 73 BA 35 B5 71
 FD 57 5B 55 42 85 77 BE 90 CB 33 A2 98 26 9D 0B
 E9 52 39 B2 A3 5C 24 90 2B 49 CD 2D B8 B6 2A 4F
 AA E9 37 D3 3B 26 F5 8F A8 B6 9B 22 31 19 F9 76
 30 1D 05 05 44 63 74 57 61 E6 5D 3A E0 04 DC 68
 3A 34 2C E1 13 A9 8A 17 7C 9B 99 34 12 D7 73 06
 9F 48 8E C9 BF 7E 4A 65 9C 12 9F 23 14 67 93 7B
 FD B7 35 A0 B9 84 58 39 96 60 00 91 55 7C 01 3C
 3B 0B 21 67 F5 4C 3E 26 5E 23 02 33 75 EE 31 50
 DD E0 28 15 DD 3A B0 B0 99 99 04 BB CF D2 9A 63
 F7 1C 29 02 AE 11 1B 3E 7E C7 30 88 2A 79 18 20
 E9 F1 0A 71 D1 DA F5 69 69 AF A7 82 5B 3C 2A 83
 C9 C8 94 3B F3 1E 38 E1 4D 78 DD 8A C9 6D 40 43
 FE E6 82 8A 59 01 63 E0 4C A3 B6 75 66 A8 E4 4A
 41 29 F2 11 86 3F 13 26 21 48 1C 31 EA FB 66 40
 11 98 DE 43 BB 57 D3 07 66 A4 73 F2 C5 A2 8A 87
 DA 78 BC E9 01 94 A6 19 1A 20 2D 8E 34 A7 57 7B
 E8 01 BF C8 E8 7B 4F E3 0F BB 6F 10 4E E8 6F E4
 16 C8 1C 67 45 96 CA 47 FF 5A BA DA 55 4F 88 05
 D5 27 92 4C 96 30 1F FE C3 24 82 38 AF A8 6F 13
 6D F7 3C A1 FF 02 96 1C 4A 70 11 81 28 D5 FB 45
 64 12 CB 99 B0 B1 0B C4 30 53 64 DC 6C CB CE 4A
 6B 75 1E 8B BA BB 1B 48 24 E3 A8 BD 05 E8 0B 90
 5D 37 49 5C FC 85 4A 18 27 E2 6B A8 A0 9A 28 C0
 C0 02 3F 45 3F 1B A6 95 DF AC 4D 28 39 92 21 34
 E4 10 13 58 57 21 49 9C 4E 80 4B 07 17 37 C0 35
 D8 D7 0F 35 F6 2A 3B A4 EB 3D D0 89 53 DB 0E BF
 9E 0E 18 50 95 F3 23 C5 4A FF EB DA FC 80 D8 4B
 D3 5E 4F E8 65 94 68 29 6A EF BB D7 69 0D 3A BE
 B8 BF 5E 20 BB 4C 73 1C E9 99 24 91 EB 09 B0 28
 59 7C 49 D9 37 C2 C6 18 A8 DB 72 F6 6A BF 48 0A
 E9 4D DD 6F 58 A3 4F 3F 0A 82 D1 F1 80 F3 AA 29
 5F 83 9A CD 2A 3E CD A9 71 18 5C 96 D3 6E 96 0D
 C8 9E B5 5C 6F 40 88 BA 2A 26 30 F0 89 FE A2 96
 0D 19 DC 45 0C 48 2C 0D 92 76 C9 B0 84 11 EF A7
 0B 07 37 0E 36 BE 90 FB F4 84 C6 B3 A8 65 F3 73
 C0 6E 35 86 2E 35 42 09 DF 9F EB E5 5D 40 8B FF
 23 BF 15 EB F9 C0 FF 44 A6 85 7C 32 55 7A 07 4F
 5D 27 E2 5A 21 79 AC 72 11 D1 92 E1 7E 7A D1 27
 12 9E 25 7A D4 A3 D0 47 3E 82 A6 E2 EA C3 CA CF
 20 DD 48 AB B5 0B E4 3A 2C 72 7A 86 96 00 E0 7C
 27 24 90 F1 86 B8 77 9B 7E F6 56 22 4A 7E 7B BF
 88 8C 40 F4 D4 A0 16 CD 2C 88 3B AA DA 36 67 28
 FC C7 3D 05 92 4E 53 41 B9 F7 F2 48 7F 40 CC 78
 66 44 8A 49 A2 CB 8D 05 77 F7 EF 8C 01 15 ED 5B
 25 75 0F 8A 84 BF EE 43 A3 DD 3E 47 06 CC 6E 07
 61 CB 5C 1D F6 91 E2 F9 D9 12 B0 FF 1A CC 9D 42
 8D 87 27 B1 00 DE E5 BD C6 0E 33 D5 C1 64 78 E4
 35 04 6C 45 02 9F 32 6E 10 40 3B F9 EB 19 E6 61
 0E 2A D6 47 F5 CF AE 32 85 D2 BA 77 0E 2C BD F6
 CD DF DE 4D 32 63 6A 26 1D 44 35 84 80 09 4E 22
 E4 2F E3 9B 9E 41 BD 5E 8B 75 15 A3 E7 49 F2 32
 A4 8D 8B 7B 7A AA F6 B7 BB 62 37 37 BA D1 DC 3B
 BD 48 F5 B7 67 58 50 A4 89 FA A4 3A 50 49 79 DB
 1F C0 AC 36 F6 75 73 33 AB 25 5A 7E E3 51 9A 9E
 33 B0 90 A0 C8 3B 6C AD 1E 59 3E EA 4B 05 E1 DD
 A5 16 DA B8 AB E0 14 65 A9 F2 B2 3A 79 B5 8F 2F
 11 81 1B B5 22 A3 24 0F A5 90 64 7A AA E5 02 D3
 DD 6C 63 A2 11 52 02 95 AC DD 46 C3 77 3A 28 12
 39 72 6E 94 A4 DB B2 6E 6C 87 2B 2D F8 01 35 E9
 6C 1A B1 C4 8E C3 52 3C BF 2A CE 6C 1A 83 68 0A
 A7 D1 59 3E 12 58 D2 6E D3 B1 EF 77 9D 11 19 E5
 71 82 1C 79 7A 76 B0 F6 A4 15 04 C8 72 BE 81 4E
 AA 03 6A CB 4C D4 31 C9 6B 8E 2A 04 F3 BB 85 7C
 7C 3D F0 99 53 D1 1C F0 5A A2 29 07 C8 29 DA CA
 85 79 8E E0 90 87 56 E9 AB DE 39 77 BF F9 47 BC
 F1 CE F5 81 6E B1 D9 37 FE 21 D0 12 91 2D FC B1
 12 E1 83 73 03 E6 CD 84 08 73 5B 04 A9 CD 7C D4
 6A 73 15 86 26 13 99 3B 3F EE 66 18 0F 0E 5E 2B
 B4 AF 58 CA 51 BC 2B D0 34 B5 7E 1D 75 3E AC CA
 B7 21 EE 62 6B 16 60 4F B8 F1 C8 51 EC DA 07 03
 70 65 03 1E 80 C5 87 9A D5 19 13 28 FB 40 4C A1
 90 92 FE 8D FE 48 1E 97 28 58 A0 72 15 6D A1 81
 79 FF 33 77 B7 67 ED 47 29 31 9F 44 BD CE 72 79
 98 66 AC 50 01 D1 5E D5 8A 60 E8 89 55 64 20 4A
 B4 9C 08 9B A5 78 82 13 F5 1E C8 7E B7 59 E8 35
 F6 D6 13 42 09 C9 5C D7 95 83 33 DF 38 B1 99 AB
 08 1B E8 47 DB BF 53 18 43 0C 13 B9 18 00 7E 39
 9A 1C F3 14 5E CF 85 05 5C 95 BA 7F 9C 77 B2 71
 C9 FA 6B 9B 8E D2 4C B1 99 63 D7 43 F0 D4 42 6A
 28 A1 96 B6 C4 6A 13 A1 1D CE CD F9 B3 D1 71 EE
 50 A7 54 75 5A C5 8D F0 AD 93 01 29 AF 48 AD 27
 6A E1 EB AE 42 3A F5 DD A1 1D 07 BF AF B0 18 B1
 1A 38 93 9F 6A EC 9A 75 89 47 4A F1 F8 97 8F 1E
 65 5E 6C 8F 85 99 26 16 A3 A6 7A 5D 23 9F 4A 32
 A7 86 D8 DF 52 40 48 33 C5 84 FF 2D 4D E0 FA 47
 A3 4B F5 93 3C 2D 7D F1 FA CB CD 40 91 DC 58 21
 D9 24 B0 43 72 49 D7 77 45 22 CA 6A 51 7E CD 9D
 22 FB FB 1D 3E 75 E0 14 CC C0 75 FE 5F C4 4C 91
 F2 60 40 A0 E9 E5 BF A8 5F 35 86 B3 42 6D 96 2E
 ED 5C 98 33 8B 93 47 7A C9 76 1F A8 0D 10 32 34
 B5 63 47 F8 AF 2D D4 68 FD 60 FA A2 77 51 8C 21
 D7 C0 91 72 96 85 F4 9D 94 87 70 B8 AC 36 81 09
 84 94 C1 56 AC 60 21 1A 1E 05 6D 5F 7B 6A AE 21
 3F 9D FE 81 B7 1B B1 AC 0E AA B1 74 10 E3 43 63
 08 E0 64 BA 18 BE 26 A1 45 F0 8C 88 13 CB 98 E1
 C2 CC AD 64 3E EE 09 F1 1D 5C 26 7E 01 D0 E2 DD
 1C 47 4E B8 83 56 7D A8 16 6C 7E C0 66 13 DD 49
 A7 4C BC 1C CC 6A 5E 2F CE BB 4F 42 7C 30 0D AC
 B9 D0 48 B9 22 E3 7D 76 42 06 25 1D DE C1 A0 BE
 C2 A3 1F CA D6 0A 20 C3 65 8B 11 9D FD D0 45 77
 41 82 2C 1C C7 00 A7 24 E6 F9 A1 08 A1 B6 A1 CA
 A0 0D D4 26 66 8D 50 56 FA 2A FA 3D 78 28 51 53
 78 5A F4 6F 99 F9 8A 83 FD BC 56 9E 86 31 A5 2B
 7D 5D 70 2A E4 7B 82 E9 D9 F7 22 F9 18 2C 65 AC
 4F 6A 6E 68 D1 55 7C 46 5D 62 83 3E 61 43 5C 97
 DB F4 37 71 D3 C0 83 8E 9A DB 93 5D 3F A6 71 1B
 0B A0 A6 DB 11 EE 27 0E D4 7B 7E 4C 06 E5 73 FF
 1D 9F 84 48 D4 5C 70 3C 16 20 29 F4 92 5A B4 8A
 EE 9D 0B 7B F2 1F E0 A5 33 BF 33 5B DD BA CE BF
 D6 AF E0 05 A3 CF 32 7A CD 18 8A 2F 20 87 10 D3
 58 92 05 E1 E2 22 5E 7E B1 31 17 6B 81 54 F8 C5
 EA B4 66 83 40 1B 44 92 51 29 24 1A A7 11 B9 5F
 D3 74 DE DA 92 95 2B 98 61 11 FD 68 05 42 63 22
 2D 15 43 90 FB C1 7F 2B 90 D2 A9 01 52 24 EA 7E
 EF E1 10 16 2E 59 CF F6 23 4E 7B 13 A9 DC 31 6E
 87 B8 4C CC D2 E7 9C 00 B8 66 18 85 C6 44 37 C3
 2F 3B B0 E6 51 B4 74 16 3B D1 4B 5C 16 FA 49 28
 02 D2 C7 D7 4B 2A DE 87 54 4E B7 AC E4 A6 66 3E
 D2 79 E7 FA 58 6D 2D FF FF FE 76 4B 8F 7B 66 12
 FC 45 CC C9 31 DF AE 75 7F CD 01 4B 96 B6 00 C6
 12 CE B1 5D 3A 6B A0 07 7B 94 5C 77 FD 7F CE F4
 DB 25 6C C2 24 60 99 11 3B 0A ED 2A 6E F4 56 E0
 AF 5D 8C A6 E8 B9 D8 F0 2D ED 9C B8 96 CF E0 61
 9F 1E 01 27 DC 9E 1D B9 52 62 44 EF 05 AE E0 E0
 15 1A 8F D2 40 46 A8 73 86 2B D4 53 1E 7B F5 A0
 C4 E8 4F 40 F3 93 07 27 86 55 63 B4 66 EB 0E 96
 7C 59 46 DD 13 E7 E0 5C 1F EA FD 3B B6 86 E9 D5
 6F 38 E4 15 D2 18 C8 E9 F0 9D 0F 2F 59 47 EE FD
 07 67 9C E4 AB FD 66 09 4B 4A 96 57 6E 1B 44 FC
 A9 62 E5 F7 71 6B 28 72 FA FD 6C 71 E9 12 39 5A
 AC 68 C9 77 7D B6 92 71 D9 20 65 F0 CD 66 94 76
 C1 C1 07 EF E8 B2 AD BB 2A 4E A8 E7 15 D3 9C 62
 7A 12 8C 35 55 08 19 53 EF F9 C8 13 91 33 02 3D
 77 93 C9 51 29 BC 86 E1 7E F1 0C 9D B1 EB 1A BE
 12 63 7C AF B6 A2 3F 9A 82 85 70 18 08 AE 0D F0
 3F EA C0 A2 03 D4 19 F1 CE 55 18 7B 27 97 BD D0
 FC CE 50 53 1B F2 58 17 BF 97 D1 EC 2F 28 C3 E4
 4E 6B 4B 50 FD 0F ED 9F 93 62 6F 71 0D DA 81 AD
 04 48 69 3F 8E C0 B4 F3 60 FA 3E 2B 21 E7 E6 76
 8D 92 3B F4 10 69 40 2B 8A BB A3 B4 2D F7 F5 37
 6B 42 2D E1 D7 47 EA F9 D5 89 87 44 46 37 9E 6F
 44 15 67 99 25 07 2B 72 FA 1F D3 2E 40 FF EE FC
 C0 93 0A 7F 9F DA 1F 55
* End 585294284 685396371