* LTspice Encrypted File
* 
* This encrypted file has been supplied by a 3rd
* party vendor that does not wish to publicize
* the technology used to implement this library.
* 
* Permission is granted to use this file for
* simulations but not to reverse engineer its
* contents.
* 
* Begin:
 29 E9 22 96 10 9D 77 F7 5F 32 16 C8 AD 4B 91 24
 06 B0 D2 0F C8 79 0A ED F0 6C F8 05 4D 6D 56 06
 36 88 18 EF 82 8F E4 AA FC 65 20 A8 A8 1D 41 23
 FE 9C 94 61 46 63 EE 5A 0F AF BF 2D F4 3E FE 45
 03 A6 24 64 12 29 E3 98 5D 18 20 4A C2 12 91 55
 1D 54 FE FC 98 95 21 73 10 FE 5A F1 76 04 86 A2
 2E B0 6B 32 3C 07 1A CD 77 A5 95 C5 5D AC 1C 03
 2B F2 05 DA 57 A7 B7 DA 0E 5A 4B FE A0 0B 3F CC
 B8 13 C0 D4 B1 68 F0 B3 F2 34 E4 A5 F5 FD 0F A0
 4F 7F B2 32 89 84 75 C1 72 ED E2 15 97 06 D1 4C
 14 61 4C D3 B8 88 74 CF FE EC 63 9F CF B4 61 2F
 77 71 84 50 E7 E4 5B FE EB B2 45 5D 9C FC 71 5D
 B5 62 D1 CD 47 92 B0 BC 46 AB 3C B2 31 63 8D 28
 96 DD 2D 25 0D 98 00 3F E8 9C 6B C3 BD 67 5F 4C
 55 1B 3D BE 35 4A BC 8A 05 12 4D B5 12 33 D2 91
 1C 10 70 FB C3 4F 5B 12 B4 78 A8 91 04 11 DD 0C
 6E 30 69 B6 B4 11 4C E3 64 D5 82 AA D7 FB 7E D3
 00 51 32 B0 92 3A 52 34 11 59 17 76 40 D4 10 A2
 FA A6 9C A4 D9 41 8F B6 CA 3B 52 42 6B 1C 90 A7
 8D 72 89 F2 09 87 CC BD 7B 07 A7 DA 34 FF C9 ED
 0F B9 08 CA D6 0A 2A B8 6C 32 0A 52 A9 90 D5 7C
 77 E2 D3 72 CA 6B FA 2A 7F F9 D5 99 6F E1 C8 51
 84 31 50 07 B8 8B 2B EF 24 9A 05 CB 21 37 36 AF
 B9 B2 06 B7 A2 AC 49 04 2B 6F C8 CB 22 14 77 BD
 16 4B DC 3D 3E DD AD D8 6C E6 DC EF C1 35 EA 2D
 C2 D8 36 0E C2 7B E0 0F 5B 43 B0 F1 EB 25 96 BD
 0D A5 BC 0E 78 68 12 FD AC 69 C7 BF FF FD 3B EB
 79 B6 03 DA 02 56 5A 6F 61 C9 3D 83 B3 CB DD CB
 5D E7 E9 B0 67 9B DE EA 54 BF 68 74 7B 54 CD 90
 AC C3 17 A1 BC 0F D6 AA 9E EA E2 10 43 5D FC F2
 25 A7 9F E2 2E DD 89 B7 1B E4 C6 4F D9 17 49 8B
 B7 7D A2 AA 16 E1 C2 7B AE E2 6C DB 58 A1 65 E1
 6F 69 BF 69 94 CE 51 F6 DD 3E 26 32 AE C7 9A D3
 98 E3 61 4F DD B0 E9 44 F4 09 9B 13 0A 6B C6 CD
 30 C4 E0 F1 26 6B 8B 03 BC 9D E2 67 7D D0 13 23
 C7 11 A0 F7 98 9A 2F DF 8C 01 D0 61 8F 7D 91 AF
 0A 7A 92 D3 12 B0 E9 4C 22 7F 69 B7 5E 1E 5C F6
 9D 72 FA 2C 78 F7 11 B2 50 CF 70 51 54 0D 71 9F
 A9 A0 3C 14 FE 9C 44 DF B2 2B 23 74 22 CA BF 5A
 79 1D 43 27 33 C9 91 6F EF 1B 95 F8 FE E8 3D 7B
 DA 38 36 36 E8 FA 61 BD 90 EB D0 21 C3 C5 35 C5
 39 B5 9D 0C 81 48 E9 6A 20 1E 65 2C D0 00 A2 2A
 71 FC F6 22 FF C7 42 88 68 5D CC 65 58 39 8B 52
 48 37 79 FF 71 E9 2D 02 D0 36 57 B9 C9 87 4A 8C
 23 3C C8 F9 09 1C A8 E4 93 D0 A6 19 CB 2C 2A B8
 A6 F2 90 41 F6 6A 56 9F F2 27 21 65 28 A9 D9 9E
 28 69 6A 03 D3 63 BF E6 A6 67 6E D6 4A 53 E5 CD
 22 5E 57 23 C2 14 33 01 5F FC 74 2C 06 A1 15 B5
 02 38 B2 67 CD 9B 24 EC 40 73 D0 CB 06 78 0E A0
 57 34 19 BD F5 F9 BB EF 2A 6A BD B9 C5 04 55 DD
 41 AA FD 6D 0D 1A FC FC C1 D8 39 64 70 6D A2 C6
 40 31 EE EA FD 58 C3 12 93 95 CE 37 F2 05 9B AB
 92 DF 23 97 46 03 55 B8 5C 62 7E 55 54 07 81 C5
 8C 0B 5A 38 C8 88 B0 3E 17 73 0D 6F 4A 07 0A A9
 B9 5F E4 FC 50 A2 AF 5C E3 C2 C1 85 7C 88 B1 23
 FD 17 EF 68 3B 43 D0 FC 73 FC 28 EF CC C4 E8 B1
 35 E8 1C 31 88 A1 53 EC A7 6A 33 01 E6 71 DF 9B
 BC 87 1B BB 20 83 BD FB 7E EC FD DB 85 5A C3 B6
 E3 BC B2 57 4C 99 D2 5C B2 FB B6 1A 49 52 60 BC
 D6 38 70 4F 09 98 80 55 7C 00 FA 4A B8 93 C7 C2
 44 E6 58 08 06 4E 0E 93 CC A6 8E 3B BA DE 83 16
 C1 C2 7B 92 DD 96 0E EA E9 BD 3B 69 0D 4E DE 43
 8E 49 D4 93 77 C0 C5 AA FE 18 DC 12 3C BD 6D FC
 DC 47 70 BA C0 14 FD FD 87 82 FA A9 7B 92 CA 1C
 9E 3D 46 C7 05 F6 BB 9F 31 D5 25 CA B3 90 08 EB
 64 AF DD D4 B8 07 29 C3 3D 9F 1A 0F B9 3B D1 1B
 96 09 33 1D F5 80 82 4A B5 51 38 05 3A 11 6E 22
 16 24 D0 6C E3 46 CD FF D6 3E 39 72 77 10 E4 A2
 7F 05 2B 4A 88 1B 3C BE BA 10 C9 86 F6 B9 39 79
 3F A0 6D B2 11 C3 42 EB B7 20 32 3F 43 87 79 7B
 57 1D 8F 02 A7 98 78 4B 76 D9 F3 56 8E 34 5D 88
 28 8F DB 66 B3 5D D1 8A CA 39 D0 08 53 A6 6B D4
 FA FD 50 00 7D 2C 38 CC 9B 81 AA DF 68 D0 84 14
 3C 5D AB 6F 67 8D 47 FA 57 CD CB DD E4 20 8B E0
 ED B3 02 37 55 7B 19 6F 6B A3 D1 8E 4E 93 7E 0C
 47 79 C2 13 E3 4C 78 7C 82 4F B2 BA 0D 78 E4 2E
 64 2F 1B 39 F8 A9 CA 69 C0 40 09 6D 98 4B 20 89
 A5 B9 2E 64 3F A0 DB 45 A8 0B 33 2A 63 D4 36 BE
 68 B9 B9 82 AC 49 DE A1 E1 41 95 63 99 CB 1C 4C
 64 CE 5E F4 35 1C 38 9E 8B 6E 4C 17 47 B3 1C 7F
 E4 9D 4C 5D DA B7 35 23 C5 2B 62 49 49 81 4B 0E
 36 82 4E 6A 81 C9 93 CC 3B D7 E5 AD EF 6D DE 59
 99 F5 CB 30 5C 21 58 F7 E2 1E E4 24 61 E3 A4 82
 55 35 3C F5 6C 4E 7F 7E 17 A8 33 89 BC 62 DE B8
 04 49 7F 32 57 E0 15 CE 8F E0 4B 27 0A 07 CF 8C
 08 CB 55 DA CB 7D 00 98 15 90 7F 01 E7 B1 F9 02
 ED F8 05 B9 35 5E 0F C9 D5 C9 A1 9E 60 35 19 8B
 ED 41 12 8D 17 08 5F E4 E8 2D B1 FF 97 5C 80 1E
 A8 50 7B CD 1B 91 88 BB 60 40 72 D6 E4 BA 53 3A
 92 D4 B8 69 76 88 69 C1 71 AD D8 5E 9B AE 03 B2
 D5 E5 96 4C BC 5D 72 27 9E 38 7E FB D4 C0 83 7B
 0F 6D E1 33 63 26 85 DA A1 F5 AC 83 1A C7 EC B9
 4D 69 C5 CF 33 0B E1 BA 46 1C D3 F8 0B 83 30 48
 7D F8 E8 69 B8 C9 02 F6 22 6C 17 10 30 38 E7 64
 13 DF D8 3C 28 A8 BE EC 8F CA 17 FF EB 6E 27 85
 A3 6B 25 57 49 CB C6 D5 44 88 7F 8E D2 24 0A CA
 D8 95 E2 0A 15 3B 8D 97 5B AC F2 BE 86 E3 58 43
 27 5B AF 5D F2 24 AB 18 1B BC 69 74 3F 49 12 38
 DD 13 CF 52 AC 54 04 32 78 EB 53 2B 8E 6E C3 E7
 D1 99 9A 53 6D F6 57 D3 43 1B E8 01 9A 54 85 C9
 47 2D 24 87 65 BD 27 49 85 1D A7 23 6F 7E AE 16
 C9 6F B0 9A 60 C2 D1 36 84 2A CE 6F 06 22 87 46
 88 4C B0 63 98 A4 5D C8 27 F7 CD 30 FA B2 39 B3
 20 9D 4D 52 C3 93 8C 48 CF 5A 8A BD C3 6F B6 F4
 5E 5A E2 2E 12 AC 40 E9 3B 51 45 A5 11 10 E3 8E
 AA 17 17 FC F8 45 F0 3D 98 33 CA 19 94 35 6F 32
 18 74 88 3B 7B 59 FE E7 E6 13 54 E9 14 17 32 15
 FD AC 3F 85 52 38 F6 A6 11 C8 71 55 90 DD 21 72
 3E 4B 76 71 F6 02 F8 3D 7F 41 95 89 EB 7A 9D 2A
 3E D0 1B 29 C2 FB 0E 35 18 78 6D 1E 53 CC 23 01
 AA 3A FE 1B DD 2B A6 FF 3E B5 27 96 B2 3E 55 03
 BF 25 4F CA 3B 84 AF 93 DC 6D 97 84 0D C7 E3 21
 B2 8C CB F9 F9 C4 BA 71 FD 6A B7 B1 4B 85 2F 4C
 7B F7 DE 4C 6E E6 98 49 91 F2 00 7F 97 AD 07 41
 B3 74 9A 5D 00 D6 5D 16 9E DC 2A FB A0 9B 32 22
 FF DC C8 16 8B 4A 53 A5 35 2E 82 B3 81 31 78 13
 F9 D4 21 3B 08 A7 44 D6 4B FD 22 43 83 09 FF D9
 5C 9D 7A EE C5 22 68 95 5F 60 B2 C1 C5 28 24 66
 89 5D 6F 84 D2 3B 63 8D 64 34 28 81 97 37 D2 60
 9C EF 68 E3 82 68 F2 26 1A 1B E8 80 88 FC 2A 32
 4B 0D 65 6B 04 C5 58 02 AA FE A6 CF 2A A1 AA 39
 BA 87 B9 CD 9C 5A 6A 31 14 5D D2 14 19 C4 9E 0E
 B6 EE 09 6D 57 B6 11 79 39 45 30 76 63 08 7B 3C
 6C 9F 46 0A C4 AA 3D 61 C5 95 29 8F 6F DC 58 FA
 34 CF 1D 3E 97 52 B7 F8 3E 42 CB B4 3A 3D 61 CC
 CF EC 43 D2 CF 55 C0 8F 61 C3 A0 DB 23 66 B2 67
 DF 65 99 2E 6C 7A 2F EF 87 4E 98 50 6A 28 FF 20
 F7 E7 30 39 0B 19 AE DA 9D 6E E6 72 BB 02 AB 77
 AB E8 6D 4E 76 D4 B3 2D 8B D4 C7 5A 12 2E 84 C8
 AB 52 35 D1 8C 63 A0 E2 B7 2D EC FF 0E CC D5 24
 B6 81 6D C4 63 C6 3B EB 9A AB B6 0D 9D 30 89 06
 51 4A 88 91 ED 43 11 8B 0D D7 3F 2D 6D C5 9D 87
 85 C8 A8 EC 78 69 14 18 02 7F 63 2B AD 1F 2C 05
 C4 AC 3D 31 1B 73 DB B3 06 0F AD 92 97 11 D6 00
 88 11 48 73 89 16 44 DF 9A E6 B2 EB 9F 29 80 9D
 B5 A8 CA 22 51 D1 B1 08 F7 0E C1 E6 16 FB 12 63
 B9 4A 4D 7E 4E B7 68 AD 61 05 06 10 4F 8B D7 51
 F7 74 F0 08 25 CA E5 9F 58 00 9D DF C5 1E 8E EC
 94 4F 78 17 F1 FF B4 8F D7 7C B6 19 0E B4 7F 1F
 FB 9B 5B 48 6B 09 26 D7 2F 3B 31 86 95 89 DC B5
 81 0E 73 B9 EF 04 D0 A6 CC 64 D0 A4 F0 B1 03 37
 B5 30 E7 FA 49 32 3F 71 47 45 66 0A 75 91 92 A7
 14 69 BE 9B 68 16 D2 36 58 CB F9 71 B0 05 89 3F
 CF C9 25 DA E7 43 4D FB AB B1 C4 65 92 A0 A3 5A
 7E C0 F4 10 95 66 90 90 3E 89 E8 8E 40 CF EC 1D
 8D 59 5F CD 2F 19 2F 7D DE BE 3B 55 E9 93 A0 0A
 A7 3A E9 F4 F1 9B A8 37 57 83 3C D6 D9 0A 84 B0
 28 4E A4 1D 6B 69 71 48 DE 55 7C C6 2A C4 2D B2
 08 F3 B9 47 9A 03 41 D1 F2 31 51 6B 58 EC 9E 1C
 A4 72 17 57 A0 56 15 84 23 B3 36 1E 8C 14 6C C9
 FB B1 08 27 9C 10 4D F1 7A 31 EE C9 BC F9 16 B8
 0E 6E 3B 1A D8 0A 08 C9 AF C0 B0 2F FA 26 7C 34
 ED BA 34 C3 3D A4 4C 15 40 DD 26 3E 64 7A D4 4F
 0D B0 23 90 9B 41 6D 29 E9 B8 33 B7 D8 C5 8E E4
 B1 03 BC 66 14 69 7E 9A 0C 5A 5F 58 DC D8 14 E0
 90 D1 55 ED 1A 4E B8 70 AC 90 47 DB D0 FE 8B B5
 85 63 2A 72 CC 6C 30 F1 D3 00 0F 72 A0 D3 45 D3
 3F 3B 85 EF 02 1A E4 54 B7 B9 C5 57 63 47 54 83
 CA A0 68 88 E6 C4 26 BF CA 70 38 FA AB 94 02 48
 19 0F CC EE F5 EF 96 2F 76 4E 46 82 1C 43 80 10
 71 1F 64 B0 05 EC 07 EC 83 68 C0 7C 6B CA 43 A7
 D7 44 D6 7C C6 DB 3C 3C A0 88 A1 E1 90 B7 B3 3A
 1E C1 BC 20 D2 EC A2 27 C8 93 0B E4 4B C0 3F 99
 82 2F 4C 30 7A 57 B0 A1 F1 9D 48 BC DD A9 29 16
 77 CC 3F 7A EE DD 92 A6 74 6A 4F EC E4 F8 68 7D
 94 8A 37 67 EC 48 7B B3 2C 76 90 B4 E9 CF D1 19
 8A CB B5 13 5E 34 76 D5 B4 8E B0 85 DF 0E D1 23
 94 F8 25 00 43 9C 6D 14 C5 78 65 0F FD B8 78 DB
 5F 97 BC BB 29 8B 1A 6D 1A EB 84 E2 62 24 82 62
 7C 50 57 7C B2 12 39 8D B0 74 06 D5 DA 67 F9 BA
 67 99 E9 06 70 C1 26 15 95 CE 71 DE 58 F4 79 1E
 FB 53 72 B6 66 C3 4E 2D AE 6E 7A 33 44 F7 0A 8E
 9F 31 6E E3 C7 58 64 2D AD E3 06 F6 BB 30 DD 55
 8D 40 F2 B9 FF A4 11 ED 9A 93 15 3E 30 4F 8C 77
 51 3A AE AB 2F FB CB 03 EF CC E4 5E D1 69 C5 CA
 DE 85 CC 4D 79 31 C8 3A 83 75 F2 E5 68 41 D1 0C
 39 8A 4B 66 B6 6A B1 F5 F2 13 53 BF EF CE 59 1C
 F1 D1 FC 04 F7 43 53 0A A6 A5 C0 85 D0 E4 29 F1
 D6 4D 7C A0 DA 41 38 18 1B 3A 00 AD 29 84 A1 5A
 65 F7 7A DF 04 DA C8 E3 80 81 0D 18 F6 6A 3D 36
 EA 0D 39 6A 96 77 0E 4B D6 E3 D6 A6 65 E7 71 CF
 FD A4 69 DF D4 19 73 22 54 0C 20 6D 1F D9 61 3D
 DC D5 9D 94 50 82 28 0E 58 31 7D 21 99 AE 57 3D
 03 3F 1D 24 B8 15 38 53 C8 5A DB 32 A9 5A BC A3
 9C FE 0A 3A 28 4E 8C 04 B3 F2 BB 3A 6F A3 3D 4A
 46 7F 96 09 92 9A 53 22 0E F3 07 B0 6F D1 3A 60
 8B CD BC 04 A7 C9 66 77 9F B6 2E 75 C6 A2 BB DF
 A6 E7 6C D8 B0 7F 1E FB AD 6B B9 DC 07 01 C1 7A
 B1 05 C1 C8 74 89 1E A0 E3 15 17 85 45 35 7C BF
 F7 44 B0 EA FF 95 6B 15 17 E9 D2 5B A0 E7 AB C8
 80 79 2F 5F 3B 5B 18 15 37 9E 87 41 BD E6 EF 4F
 D0 BA F0 65 CC 6F 74 2E D5 2C 0E 50 6A AC 5D 39
 4D FF 4D 01 6F 94 B9 9C 9E 35 5D F0 70 5C EE E2
 73 F1 A8 6A 64 02 8D 55 06 4D D9 80 FE 49 BA 9D
 44 BA 17 24 A4 16 FE 20 1F E1 E8 51 7C 90 33 42
 06 8F DA 4B B5 33 FC 5E 61 52 70 A7 46 BA C3 73
 49 D2 D6 23 B9 7E 36 43 D4 0E E9 C1 30 84 B9 BA
 20 5C E7 89 9A 71 7D 9C 3B 90 39 24 E8 FA 46 F8
 28 65 07 18 92 89 D3 A4 FF F0 4D BC 67 58 41 7B
 E2 4B 09 86 26 7F A2 7E A7 69 FE A2 C0 D9 D5 26
 90 28 50 74 9B C3 0E 85 5E DC CF 29 98 38 85 93
 38 0F 7F 28 30 DA 6C 3D 42 97 DA 7F 0F D8 36 92
 6B 55 C1 0B 4B 19 28 3A 8B 07 76 8D 64 3F 45 33
 0D DA 37 7F 13 3E 50 C5 75 66 A1 0C 78 B3 FF FC
 62 9A E7 1C 89 0C 60 07 12 B1 0B 7C 75 2C 71 1A
 70 12 FE C1 7F 4D D5 CD 41 CB 90 FB 28 18 34 34
 48 7D 99 2E 73 81 BF 25 EB B5 68 FC 94 EB C5 CE
 E9 DF 77 7A 90 D8 E3 0B A0 7B 8C 9E 29 A1 71 01
 53 AA CE 73 95 07 C1 7C 16 9B 1D 15 40 9D 09 0C
 84 14 C2 B6 A6 3D 8F 46 58 BD 83 DE CA 35 47 2F
 77 FD 10 D5 E6 B5 43 A4 9F 0E AC 54 EF 64 D2 B0
 F8 6A EF 2B 0B 2A 3E 6C D8 31 9E 85 FB 4F 8F B1
 E1 34 97 54 EF A5 43 F3 E0 FC 87 73 D4 CD 06 B2
 4C AB 48 AE 8C 15 7A 3B C1 59 61 27 C7 F2 7A 2B
 CF 5E 70 5A 3D 6F 7D 71 E7 EE C9 34 01 4C A1 BF
 5B A2 A8 FA A8 75 50 54 47 55 60 AB 5D 8C 43 EA
 FD D4 C0 3F 5E 6A A1 C4 37 CE 4E 80 4D D7 98 24
 CB 7F A0 BD FD E0 26 60 5B B8 AE 4E F7 68 79 1B
 98 AD 42 7D F0 4D D8 69 48 46 09 26 48 00 08 85
 26 ED 87 2C C9 D2 33 FB 9A D3 1D D5 B4 F2 34 EC
 9C 43 45 65 21 79 95 E1 42 45 CC 39 92 DC C9 42
 04 B6 F0 81 2D 9B 1A 64 70 C1 F6 C6 DF 24 38 5C
 98 28 E2 0C D2 B7 E8 8E 6A 42 51 3D 0A 99 12 BC
 42 1F F2 D8 3F 3E 39 BE 08 91 90 FE 34 1F 1F 6E
 D7 90 E0 EB 4A 58 CD 0A 2A 61 2C 21 D5 54 DE 29
 5A 7D 2C 57 0F A1 80 06 95 7D 73 65 82 F7 46 D7
 B7 EF 07 8C DF 2A 9C E8 84 1C 04 84 39 E3 7C 8C
 3E 3C 33 F3 EE 5E CF 00 37 D3 E3 71 C2 91 A7 C3
 E4 0B 25 E9 4A D0 40 BF EB 87 2B 0A 58 77 95 50
 25 FB 37 B8 22 0F B4 A5 F5 6A 3C 8D 0D 54 D2 EC
 9D 41 68 3D 32 BB 5F 0C CB D4 30 AE 39 31 B1 4E
 73 A5 9F FD 01 97 C6 2C FF B3 B3 9B 3C E8 4B 92
 09 8A 8A 5D 9E EE 56 84 2A C1 16 26 24 D3 28 0C
 AB 1C 7A 55 80 E4 5A 40 23 CD BA E6 77 68 4D 6F
 AF A4 FD 32 9E 22 8D A0 A8 78 55 11 6B 43 8E 27
 36 08 7A 74 CD 78 A3 E8 E6 1D 54 76 B1 EF EA 05
 72 F6 CE C9 6A F9 7E 19 37 4A 01 46 97 1E 05 9D
 67 90 F0 60 2A 90 92 20 9A 3F 0C 84 8B BA 29 89
 42 32 1D CC F5 B5 1A EB 04 47 FC 85 B5 EB 3F CF
 FC C9 34 7E EA DF C8 F4 19 CF 1A 7B 79 91 38 A4
 1D FB 14 FE B8 47 E7 AA 0F B8 B2 3D 97 9B ED 92
 B6 57 2A CC 3F 92 F1 81 96 01 34 D9 7D 89 7B AD
 F5 08 6D C4 22 FA B4 E7 BB 1A FC A5 D7 32 95 5B
 52 96 F3 81 78 1E B6 7C FF 7D C0 D2 C0 BF F5 53
 A9 43 96 BF 43 E5 C6 E0 A2 03 B1 B6 23 A6 4F 8C
 B4 69 55 AD 40 56 65 E5 DE 5D E0 B0 A6 74 ED 26
 94 74 93 50 65 BC B1 98 19 84 E5 77 C5 A2 FC 9F
 62 8D B8 82 92 9B A9 44 DA EC 37 76 14 B2 A2 91
 A8 26 6A 41 52 FC 02 2A 54 22 CE 27 46 76 71 F1
 75 A2 A6 A3 10 0B 34 CE E7 DB A6 2A FC 54 4D DE
 B4 5D F4 25 F3 EB 3E 7D 95 8A D9 65 C6 3B 31 61
 04 80 2A 69 63 91 9B 09 51 A9 8E 23 8C 86 12 E1
 DC 30 7D 55 D1 29 2F FB B5 AA 60 86 B1 54 EC AB
 D4 21 AE B1 48 C8 F0 76 FE 60 F8 45 3C 36 E6 A5
 7C E3 4A D1 DB 3F D8 6C CE E9 4F 7F E1 3D 83 23
 CA 08 97 F4 BE A3 BA CB 47 2D 4E 74 6E 88 FF 95
 01 D4 60 62 E4 4D CD EA 0F 3F 73 27 27 1B FD FB
 45 D3 1B B8 DF 21 03 0A 29 4F 2B 27 DF B7 4F 65
 F7 24 3E 3E EB 5C 22 8C 9E 8D 53 CB 94 4E 04 C0
 4E 59 ED A0 6A 9D 67 75 CA 29 22 6A B6 ED 7A 6E
 07 5F 3B CF F9 F7 2B 3E 7B EE D9 39 C6 5E 5A 95
 4B AA 4B 25 68 8B 24 8E 14 91 35 2A 34 94 D5 08
 20 54 00 D3 BE CB E4 D5 2A 45 A7 E6 51 EC B0 2F
 92 54 78 2C 0F E9 67 C8 7D 8F DB 1A 13 8A 8B DF
 BB 4D B2 E1 14 5E DD 0C D8 1D 36 6E A0 C6 20 77
 BF 3C B7 8D 85 C8 4B EF E7 F3 EE C3 29 70 10 8E
 E9 58 C0 8D 29 EA 14 C6 4F 0E D7 4E A2 19 F1 47
 C2 AE 34 34 4F CE 7B 09 D2 77 C7 29 52 05 75 24
 2B 72 AC 10 5C 7D D7 81 35 97 CC F5 58 44 3E 44
 43 25 6C FD 3A 1A D7 B9 82 EA F1 29 E8 59 F8 6A
 A8 CF 58 EF AD 6E 93 BD D3 70 40 F9 A7 A1 3B 5D
 FB C6 BE 0B 2F 57 20 32 0A 86 11 FC 93 57 85 2F
 72 72 0D F7 DE 25 C2 BE F8 F2 CE 56 6F B1 EE 60
 DA 0F CD 12 38 DA 75 9F 2D 12 C4 26 91 77 DD 34
 80 4A 4F 6C C5 CE CF 5D E4 01 E0 E7 6D 59 C1 FE
 D7 1B 7E 96 EB 69 EA C8 6A AC 7C 68 EC A8 3E D6
 8F 3B 3C 8E D7 7E 82 73 FC 7C 6C 2D 86 E6 D1 0E
 24 E2 B0 F0 11 C5 EB DB 5B E3 55 91 30 C6 19 3B
 4C ED 18 BF B7 91 AB AF 7D F7 F2 B9 CC AC 4A A1
 68 76 E9 C1 9B 82 DF EE 67 73 49 D1 91 AF 84 8D
 C1 17 8A A3 53 7A 02 2B EA 6F 07 66 28 87 FE 73
 C1 C8 98 C1 32 9E 7E 7A BC F8 30 89 C6 8B A0 AB
 5C 95 E2 4A 87 FA F7 16 99 54 8C 8E 55 8A B6 9E
 8B 3A 91 BD 1C 4D DF D2 A3 F1 16 C2 F4 04 F5 95
 E5 7B C3 34 F3 23 35 8E 15 0B 5C BE 7F AB FA 6A
 56 2A A5 B5 C1 BD 28 72 98 BC 9D 3F B2 5F 55 0C
 97 A1 D1 2A 48 92 20 1B 25 EE 9D DF 7E 52 12 1E
 91 01 D1 46 21 1C D8 28 13 C9 65 15 A3 79 AC 91
 F5 81 D3 18 97 66 3C 36 29 09 22 67 B5 F0 32 AB
 0A D1 46 6E 49 02 7B 16 3B 76 6A 29 3D 59 E9 5A
 2A A6 D5 B3 22 DF DA 3D B4 51 8E 58 3C 15 19 FB
 F5 B9 A4 C8 ED 9C F3 16 E2 B6 04 E8 56 39 13 39
 40 6D 73 1C 34 23 7A 77 72 1E 2C 04 51 7F 2F 14
 D7 20 77 01 16 CC 13 95 26 08 15 05 33 F5 45 81
 62 E8 0C F5 D6 8F 49 83 A4 D2 07 BE 27 8C 7F A2
 A9 1B E0 69 55 DB AD E7 64 A8 A9 D0 E7 42 77 51
 A2 C4 D8 F3 7E 72 76 5D B4 84 DB DC 5D 53 51 11
 89 12 64 17 AC BC 85 BB 6E 92 B5 56 2A 92 38 72
 50 35 BF 11 45 13 BE FF 4F 88 37 E3 1B FE 55 97
 41 CB 8E F5 23 72 76 38 24 67 2F D9 E5 C0 2F AD
 56 F8 BF 31 3C 3A E9 D2 27 A6 81 99 D9 DC D6 E0
 78 3B 7A D5 D9 BC 62 7A E2 B5 A4 48 C7 7C B8 A6
 52 08 B9 34 F9 C8 22 53 B0 FE 82 8D 69 5D 2C 9E
 59 81 4A BD 1F 23 7B 5C 50 D9 52 A0 CA 85 85 D2
 4B C6 DF 39 60 2D 1E D5 D9 29 D7 69 96 67 2A C9
 97 26 08 19 09 D9 FB 5C 34 FD 82 26 F6 38 6F 14
 8F 14 B9 9F 50 6A 85 65 2E 78 2D 3F AF 0B 91 99
 FE 3E B0 A2 6C F4 C3 DA 4A 8F 06 A7 DB 8D 16 18
 6A 4D DC DF D9 01 23 DD DC DB CA D5 F5 79 1C 89
 C1 8D 31 F0 67 07 58 8C 6D E0 60 39 92 89 D8 87
 E7 64 39 72 B3 19 CF F9 87 18 56 5B 09 EF 64 2B
 A6 9F 60 D0 58 3D 32 0D 82 89 71 2E FA EE 4B 28
 30 7F A5 57 1C F8 DD 02 F8 41 ED A1 8F 9B A5 28
 EA AE 32 01 A3 A0 75 A5 24 52 12 AB EF 15 3D 18
 C9 C2 16 85 3B 73 32 E2 A7 21 0A DE 20 83 B0 18
 AA 04 16 FE B8 93 44 7F 10 25 DB 5A 7D 1E 5D E4
 F1 83 0B 27 7A 39 BE F9 55 CD 0D EE 39 4A C8 15
 68 FA D1 89 37 0F 2E FA CE 22 13 1E 53 13 C7 99
 0A A3 1F DF 22 11 24 7D 2F 22 15 9B B1 BC 8E 3D
 93 10 A4 22 70 F0 5A 73 E7 5D 29 AF 21 9E 3D 28
 99 1B D4 44 01 B0 33 CA 30 2F BC BA DF 14 45 5C
 4C 6B 52 5A 81 CD 4E 3D C8 A3 A8 47 F6 EC 51 01
 57 3A CF D4 04 06 84 9C F6 39 37 8A 2A 27 2E E2
 6E D5 0F 89 B7 86 B1 94 2E 2A 57 C2 7C EC 52 6F
 A0 36 A1 EA 3E 98 22 06 25 11 7D 4A 5E A1 09 D8
 67 AC 4A CE F6 E0 C3 CC 40 F0 8B D2 73 00 E1 F3
 0C DE 96 7C 33 DA C9 AE B7 A5 88 D3 28 1D 1B 82
 90 09 60 CA 98 71 22 69 7A 79 8E CD D9 71 31 04
 9A 3C 27 5D C4 21 EC 01 D1 38 C8 6C AC B9 68 9C
 A2 E4 94 DE AE 9B C5 49 BB 21 C8 B5 2F 9F F4 C0
 3E 42 E0 B3 95 C7 3B 30 A4 5C 66 4C 6A BE 74 18
 92 50 73 E9 C5 EC D4 4A 85 24 D1 7E 6C C2 61 9B
 0B FC 58 0A 83 CF 82 93 8F 55 CD 9C 2A E5 42 FA
 C7 53 04 48 9C 09 F7 F1 27 E7 45 DC E0 BB 8C F3
 A5 3F 08 0E AF AA 1A A2 F0 B8 74 6C 13 7A 94 84
 1B 05 90 6C CD 44 9E 6F 33 4A 37 D6 13 18 12 8E
 26 25 F4 94 4F 06 9B 21 8A 12 1B E0 F9 04 40 19
 A5 C9 F3 75 4F C2 38 87 F6 3D 9E A4 B4 47 19 B7
 76 13 85 51 E0 8E 9A 6A 1E 28 B7 4D BF C3 4D F0
 33 BA 2A 37 A1 79 B5 D7 1E 99 17 D6 DD C1 27 63
 39 89 DF EB 04 BB AF F0 91 BD A4 A8 F6 4C 31 5A
 0C 18 A1 55 1C 99 69 B9 5C 42 AF 1F 9B FD 84 03
 22 05 26 6D 91 CA 2D 53 3D 19 6D F2 C3 6F 15 05
 4F A3 E8 A1 90 7D 41 BF B9 0E 5A 8A 0A 4A 3E 5C
 AF FF 99 59 D5 38 D0 85 75 E9 80 F3 04 9C 00 44
 0C DC FE 4D 0B CB 54 B3 95 2E 4D 2D 34 53 D2 17
 8E 29 06 7B FE FF C8 C9 23 42 BF 7C EF E8 01 5E
 5E F9 A7 22 A1 2A 2B 75 20 4F F0 A3 6C 7C 4B EF
 C4 CF 0B 4D EB 14 81 57 9C 03 59 4F B7 0B 90 FC
 81 77 10 9A 2B B7 40 AF F5 3F 37 CB A7 E6 34 0D
 E3 FF D5 E8 F6 AC 1D 66 87 DC 0F C1 40 26 9E D4
 77 2D 70 72 6D F9 AF 16 39 8F 57 9D 3B 86 3C 93
 62 A0 EE CF 94 AB 71 AD A6 9F DB 40 4A 86 41 CD
 B0 B4 84 A7 EB 42 BF 66 0C C9 07 28 84 A7 22 11
 E6 32 F8 E2 9D 90 13 CF 43 F5 7D 5E FC E1 3E D4
 6A 17 83 1D 35 22 D6 C4 2C 55 87 22 43 4C 8C 3F
 49 3B C4 32 35 D7 29 BB 63 8F 94 52 1B 87 28 5B
 C8 98 41 32 FE B2 73 86 A1 6C 97 1A C4 1D 38 4B
 56 F1 27 50 15 46 2E 89 24 88 AD 94 8B 7E 6F A9
 B9 EE 13 4E 02 6E 3E 14 C5 C8 04 42 7D 19 06 4F
 1A D6 B2 2B 11 2F BD 93 8E 9C 8A CA 42 6C CB 27
 66 BB 65 60 B2 67 A5 B7 FA 3C BC B5 F2 0C B9 29
 98 C3 7F A6 D3 8B C5 E9 E5 73 53 27 52 F1 EF 41
 86 2E E2 2A 91 B8 4D E9 19 7A A5 2B A5 50 6B 68
 2F 29 D6 9B 76 A8 60 D4 07 CD 29 13 B8 2F C9 80
 1B DC 34 00 4E A3 04 3E F2 47 06 6F 4D CA 8C 45
 72 7A 53 63 46 FB 34 E6 D8 FB 4A 3A 3D 0F 1B CC
 61 04 F5 81 DC 46 5C B4 48 22 34 1F 3A 0C 4F 13
 2C 26 6D C7 E9 60 F6 FF 0A C0 9B 0E 7A C3 19 76
 AC 59 EF 4A 35 5D 0B 06 36 1D DD 06 AB A0 BC 7F
 91 DA 7D 5F CA DD 68 FD 2D 69 27 53 73 F7 92 91
 BC 91 9B F7 B1 AE 1C 0E A5 41 31 C2 EF F1 4F F2
 66 26 3A 39 7F 49 EF B0 D7 1B F6 6C B8 AC B0 5C
 C3 05 76 2B 3B 6B 26 E1 D0 70 94 A9 55 43 4A 06
 03 8E 6A E6 7C 06 0D 11 5F CA C2 F6 78 9F E0 76
 F0 27 06 96 7E 67 D4 C8 37 45 01 A5 4F C6 60 2F
 F3 17 61 00 6E 5A C0 3E F2 1C 5A 61 1E 2C E6 3C
 05 8E 44 60 53 2B F1 68 54 16 D9 EF 1F 97 AD F6
 B9 16 C0 42 0E 2C 4C DC 5A B8 DD 83 89 C5 72 CA
 63 A5 54 C0 2E 90 CC E1 45 D6 7C 7A C0 BB 79 E6
 95 86 41 79 F3 19 AA 16 80 A4 94 CB 1B 46 DB 8C
 06 FA B5 45 0F D9 BE C8 BB 15 B1 83 87 BD 21 C2
 A4 FD 5A AC 57 1D FE BC CC 0D 20 B1 9D 1B AA 1F
 49 29 BF B8 44 9D DC D4 2F 2F 59 83 F8 00 90 8B
 3F 97 1F F6 3A 4D 0E F6 17 44 60 49 C3 6A DF E0
 B8 E0 82 81 9A 9E 8C 2D 54 00 54 B2 EE F9 09 68
 92 71 DD 84 DB 72 D2 C1 B6 22 0E 15 B2 7F EB 7A
 78 79 D8 7A 8E 72 6D F9 FF 93 D3 5A 43 AD 60 57
 00 C0 72 FE B8 D1 D1 41 90 25 7D 1F 3E 80 4C 1B
 31 B8 68 FB E8 08 03 E3 46 99 94 5C E2 C0 98 40
 BD CA 75 0C 69 D3 B2 12 DF 41 36 08 D0 EC 52 CC
 F7 67 82 CF 0E A6 41 C1 39 01 C2 1E 32 E3 2F 5E
 ED ED 01 E5 41 09 52 6D 2E AA 21 80 05 1E 1F C0
 26 E4 FC 71 40 EA 21 D0 54 24 16 EB 5D 45 7E 42
 5E C4 B0 A9 3F DD D6 3F 4A 02 74 84 0D DA F7 11
 71 40 F7 16 C9 02 46 EE 62 1A C1 0E AD 45 77 A6
 BE 0C E7 FE FB 42 4A 0F DF 80 32 2A 60 50 82 83
 CE B7 88 28 A6 60 63 24 B1 DA 75 D6 50 77 8B 4C
 59 EA F4 53 04 06 0D 6E F3 A4 7B E2 44 CF A5 2F
 5D 38 E4 D9 6C B7 DC EE 97 A2 CA 87 59 FB 7F 4B
 73 D5 41 A4 60 EF 9B 25 42 CA 2D 0D 2C 4D 0C 7C
 90 51 93 A4 F5 77 9A 7B 81 DF C0 80 43 8E FD 33
 74 52 DC 78 2E 55 5E DA 4C 60 55 C5 EE 19 21 43
 1F 31 6F C5 D6 7D A2 95 FD 12 3B 5E 85 19 ED 80
 2D B4 25 2F 96 79 67 BD D5 F2 E3 99 C9 60 52 BE
 E3 30 99 E0 C7 FC EA A7 6D 81 7B 77 50 00 BB 3F
 A2 E5 73 65 2B 83 00 21 A8 E4 B5 A6 81 84 A4 E7
 3F B9 43 E1 76 2B 29 E1 AD 41 83 24 ED 70 92 6E
 68 DA 16 F8 8C F7 5B 42 C2 34 0D AF 13 6F DE 51
 C0 90 B0 4A 2F 31 F1 78 15 F9 99 85 B3 3E 46 CF
 F0 FF A4 13 AA D9 D8 34 F2 7B AB 31 1D 59 8D 29
 6B C4 E6 79 4F 09 3E AC 4E 0B 49 B3 E1 6E 63 EE
 87 F5 F4 48 4F EF A6 09 96 F9 05 CE 11 43 E6 89
 27 2E CB F9 A1 84 A2 FB 44 C0 FE 74 C7 94 92 A0
 EE B3 B5 41 FC 37 C7 2A BC 09 6D 17 C6 9A EC 81
 0F CF 1E 80 62 EF ED 49 16 74 B3 1F 67 2C DD 04
 75 98 8E F1 C1 4D EB 3D BE 5C 6B 1E 8E F3 FC FF
 88 D0 D8 C4 35 BB A7 98 95 66 AA 7E 11 32 1B 96
 57 73 7F D5 1E EB 2F C8 6F 64 C5 BB 28 B0 0E 6E
 81 A6 80 E1 33 E1 0A 9A 3A BB 65 DD 88 5F 2D 82
 3C 15 75 35 BA 05 57 2E 33 ED 36 56 5F 5C E1 84
 5B 99 72 82 35 D8 F2 E2 2C 18 9A 89 82 49 3A 94
 95 DF 0A 02 C6 BA 74 8A F3 30 17 06 75 0C 42 86
 49 27 E0 09 DF 96 57 C6 1B F7 26 D4 F4 61 BC 67
 5C 2B 2B 9F AD E4 44 96 EA 00 0F FC 15 39 4A A1
 08 38 E3 C7 CF 05 C1 6D 8F 8F 8D 2A 2F 01 C1 E1
 EA 94 E6 BE 7B 83 AB 8F D5 CC 37 48 C3 85 59 D0
 EF B8 36 38 66 4E C8 8A 64 0D D8 C6 30 8A E9 38
 EA 06 E3 E6 9B CF 9B FD 05 65 D9 39 BA F6 59 5C
 7B AD 0E 1E D0 8B 9B AF F5 BC C0 73 E8 3D 19 30
 CC 7D B5 DC 7E 1A 1B A0 A8 4F E2 A5 06 F5 EC F1
 74 9C 6F 67 F7 14 21 3F AA 3C 32 EE E0 C5 51 50
 3C B4 07 4A B2 75 0A E5 44 42 8C 78 89 A7 37 92
 ED 35 B8 00 14 77 DE DE BC 68 12 DB 23 28 67 15
 83 AE 6D 8B C9 6F 78 5B AD 83 FB E5 A6 79 18 B8
 92 D6 70 EF AB 2E B6 C9 8A 7F 78 CE 5A D6 22 46
 84 DD 95 0F 8C 83 BF 1D 03 4F FB 67 0F 8F D8 FF
 79 F1 68 D0 B1 0E 3D F6 74 97 57 43 1C 52 1E F6
 A7 23 4F 4B FC 9A 97 D5 6F 8E 29 E8 8D AB 5A BE
 0A 62 58 9F E4 67 D4 2D 21 3E 10 24 0C 4C 31 41
 BA A8 39 A0 05 5D 1D C8 AD BD AA 58 A1 3F 2B D7
 BD 87 60 7A 26 45 BB AF C7 92 E8 70 8C 11 F1 79
 B0 10 EE 50 6E 45 89 70 2A 73 E1 75 F7 BB D5 36
 48 04 C3 1F A5 0B 35 40 AE D3 E6 23 A0 E7 F1 27
 46 55 CC 1C B5 FF 05 0D FD 29 E4 8B DA C6 67 1A
 AB 31 57 0F 98 A1 87 59 54 41 64 03 D9 14 82 AC
 86 BA 5D 1C 8D 69 AB 7B 56 91 2F EF D9 2E D5 E2
 8C 21 C2 DA 66 7D CC BF 71 B0 11 5A B8 F5 E7 99
 A5 AB 12 F6 1A 69 AB B1 F0 CD 6D 79 0E C7 26 06
 E3 76 EC C9 4B 39 8F 8B BC B1 B8 4B 04 21 09 77
 6A 45 83 35 D9 5A 8A 62 96 03 A4 6C 99 4B B9 65
 8A A1 0A 32 8C 35 39 BB 79 EB C6 BF DA 8D 80 8A
 4E 3B 8D 1E C0 CA C6 A2 57 43 5C 72 B1 9B 9C 18
 20 86 70 E9 D8 FB 1D 89 46 24 F2 6C 5B DC 32 CE
 0D 54 4B 8C 3B CD 7A F1 7F A9 F7 5C 6E BB 24 E6
 1E BC EA 9F 50 F8 C0 67 AF 81 34 08 3E BD 4D F3
 50 F9 38 40 90 81 F1 BD CC 04 03 A9 39 64 3F FA
 88 05 D8 9A 85 E0 98 9F E7 86 06 60 C3 56 20 78
 C4 05 31 B4 53 F2 44 B8 76 12 42 DA 27 DF D0 F4
 D0 61 3A D3 14 F9 B9 40 82 C2 05 30 66 92 79 1E
 02 D7 35 DD 9A 90 75 CF F5 17 EB C5 A9 35 41 51
 D9 CC 75 AE 1B EB 96 DF BB AF D2 BC 11 23 5A 7B
 52 59 C9 7C 7B D2 F0 B9 B0 DA 59 B4 F9 55 B3 C1
 56 F3 C0 DD 19 90 54 FE 9F 0A 97 10 B9 88 CE 3B
 96 98 DE CA DC 11 22 2D 2F 4F 12 3C 7B 64 AB AD
 5D 85 E4 29 EB AA 1F 02 6A 85 C9 A7 BD EC FA EA
 D2 4A 87 DD FE 1E 5E A1 93 A1 E3 8B 19 F1 C1 E5
 25 68 39 D6 EB E8 A3 7A 7D 48 D1 67 A5 19 24 B2
 5A E4 58 B2 7E 03 15 1E 27 A0 84 03 8E 6C A4 46
 A8 0B C7 3C 3B D4 39 9A F7 82 5F A9 C9 D2 C5 41
 94 CB 46 87 F9 FC 7B 5D D5 1B 63 5A 49 BA 35 3C
 46 09 29 C4 DA 13 BC BA 6F 7F EF 26 43 A7 08 72
 12 DC CE E3 5B ED C5 4C 93 13 54 36 2A CC C8 C0
 27 B8 0C E5 87 7B D7 DB 90 46 E9 B5 5E BF BE 0F
 C6 4F 28 06 B0 A0 E2 52 F5 09 E8 85 E6 A5 54 B9
 75 45 58 07 11 E7 30 46 BC A9 47 1C 89 0C 2C 8D
 C9 D5 1C 21 DE 19 C1 E9 A9 FB 06 3F 65 C8 D0 52
 11 90 8E B8 B1 89 E6 CC 56 2B 0D 28 3C BE 0B 13
 60 39 D2 7F 55 37 B9 F4 47 40 C6 1E 8C DB 44 AD
 37 BD 21 27 86 1B DD BB EC 83 8E 26 49 42 34 D2
 7F 75 7A F8 8C F7 44 60 30 B5 BC B7 B5 09 04 4A
 0E 17 5F F7 25 96 37 FC 47 74 7B 59 68 A1 D0 80
 D5 E5 F3 25 E0 B8 D3 83 57 5A AF BE 4A A3 72 36
 E4 45 CD CA FE 3A 1F B2 11 55 DF D2 E6 A8 3D BE
 5A 78 47 2A F5 8A 62 AF 90 E4 9F 0E 26 67 C5 EB
 C4 4D 94 E3 8F 0E 36 35 12 AC 45 36 6E 63 40 E6
 1A E9 F5 90 C5 45 FE DE 18 95 13 8E 77 D5 56 39
 F3 02 D2 20 83 E5 06 AE 19 F3 87 8F 20 8A 1B BC
 06 6D 12 38 26 2D CF 13 F7 35 B1 96 BA 12 7F A3
 8F 08 BA A5 61 4E 10 09 DD 30 98 CD B6 38 5C 5D
 4C 61 A3 42 F1 4A 82 B2 BC E8 71 0B 81 9F CF 33
 0F 88 F6 58 DF CC 3D 76 2A 01 AE 0B C5 7B 67 57
 6B FF 9D 57 EE B5 04 EE B5 F3 12 57 B0 B6 B3 4A
 FE 1F 5D 14 57 56 56 28 F9 8A E3 ED DE D9 04 32
 72 3B 01 8B D0 66 9E 09 80 2D AC 34 CC 83 37 98
 54 31 DC 70 AC B3 BE 0A B9 7C 92 AB CE 82 3A A0
 56 A8 F4 B5 13 41 8C 6D 7F 6A 8C A4 95 98 19 08
 8F D8 9F 2B 87 CB 29 69 1E EF 9B C2 E2 28 0A 29
 4E 06 3C B7 68 A4 84 8F FD 3D 82 36 29 20 73 64
 11 D0 10 8F B4 C7 D6 57 C6 32 A5 35 A4 84 E9 54
 74 72 EF B0 52 7B 3C A5 E5 FE 01 0D 6C E6 46 CD
 60 F9 E3 58 89 78 29 0A 91 A1 4F 6F 2B 1F 74 D1
 B6 B0 CC 16 79 A0 ED 86 7A CD 47 7A 70 51 8A 48
 8C C2 A6 41 51 E4 27 AE 14 87 2A E1 DE 50 39 7C
 0F B8 1C 06 DF D9 91 49 30 F7 F4 3D 37 28 6E AB
 B1 F0 BA 00 6F 95 CC AE F9 01 E0 62 BF 8E B9 95
 F6 E6 26 71 8F AB EC AA 66 CF D9 53 04 54 72 F2
 A7 E3 06 62 A4 58 DF 93 35 FB 5E 91 71 CB D5 A6
 11 4E D0 1F A2 AF 16 FD FA 59 33 2E 80 2F 58 55
 FD 1D 4D F9 71 30 46 42 A0 35 52 6B 19 18 5D D7
 AC 97 BF 39 02 13 B7 C6 68 6E 7E 4A 03 FD E2 CA
 A6 4C AC 3E 72 C9 E9 79 E2 71 F5 49 D7 6E 3F DB
 C6 1B EE D1 2F 9E B4 29 FE E0 01 CD 75 F2 22 4A
 8F 81 13 A5 03 07 6A 5E F6 65 6B E0 3E E5 A2 9B
 FC BF 2F C6 E2 91 C0 ED FB 75 EF 8E 53 60 8B 2E
 A4 64 70 C9 E0 71 D0 66 78 F2 83 1F D5 28 AC 28
 64 54 6C F9 AC 81 BB 82 56 42 FD CB 15 BE 19 07
 AE 16 87 6C E9 5E 99 82 CD 68 84 AA B0 3A 1F 9A
 26 58 9B 40 68 A6 18 2C 70 A5 10 6A AE 21 7A 13
 14 1C 0E 98 31 3F AE 77 92 A3 7A 79 95 43 D5 60
 55 48 12 5C C9 D3 08 9D 5E 09 04 73 A1 1E 7D CC
 14 89 BB 60 20 59 EA 74 3E 20 ED 7A 49 C9 AF 8F
 A4 17 76 62 4A FF 35 4E 32 A8 1E 0D 01 DE CE 6D
 D1 62 0F 09 3F CC 9C 49 FF 83 FC A7 D9 E9 B9 8B
 C8 C7 17 CB C2 16 B5 77 6F 3C AC 13 73 28 ED 87
* End 112154272 1119020725