* LTspice Encrypted File
* 
* This encrypted file has been supplied by a 3rd
* party vendor that does not wish to publicize
* the technology used to implement this library.
* 
* Permission is granted to use this file for
* simulations but not to reverse engineer its
* contents.
* 
* Begin:
 0C 63 38 FB 5A DC D0 D1 ED 75 4E 85 04 7C 81 2B
 CE 5E 69 1A 1E D2 E7 A7 16 E3 A2 35 6D 4E F4 00
 DD 5A C4 81 07 77 07 CB F4 60 3F 22 C2 29 85 24
 E0 FC 02 7A 03 D2 CC 09 E5 1D ED DE AE FA 94 05
 0D 64 68 6B AA 42 3B 97 54 D7 86 3E 6A 4C CE 4E
 5C C9 8F 2F 80 B0 80 DC 00 59 31 21 FF 4C 83 E5
 3E 70 B2 86 6B 09 8A 60 0D 51 B1 38 48 97 FF 3F
 E4 B0 D9 18 D3 0D FE B1 52 2D 4F 6B 51 3E 94 6F
 7D BA FF 9E C4 C9 1C FF 55 4C E6 E8 31 E0 83 8A
 14 8C 4A 5E 91 B9 FA 77 E1 2A E5 09 FA 78 B3 75
 17 BF 69 34 3B 2A B6 B9 62 B0 4D 67 F2 8B 6E 72
 F0 D6 9D 1D 9C 77 8D 24 43 37 8C 8B 18 86 82 06
 12 61 11 DD C2 16 E1 AB 91 8C 93 B4 BD 47 0D 6D
 6F BC 5D 89 A1 D2 CD 0D 9E 20 C9 CD E0 53 28 4E
 F2 E0 2B F6 AF 0C 6C B4 5F 86 3A 11 E4 3E A3 00
 46 65 EB 2E 59 96 33 99 FA B7 FC 8B 55 A2 3F 79
 5F B6 B1 84 DF 0E 94 8B F0 C3 3A 69 40 D5 84 F3
 66 47 02 26 F3 A2 11 04 27 7D 4C DB B3 0D E6 F5
 D1 88 69 20 85 B9 5B 52 94 F1 06 B4 AE F8 67 11
 88 3E 65 25 13 23 D3 7E F0 18 6E FC 28 4A 5C F7
 D4 CC 47 A6 4C CA B1 97 C0 4C CA 23 16 C1 4F D6
 04 CF BF C3 FB 98 E8 B9 14 B1 14 03 78 88 91 96
 C1 4F A3 E9 04 1E DB A0 53 71 5F D4 53 EC F2 B0
 74 11 D4 08 EB 9A 3D 93 D4 EB 90 ED 21 B8 6A E3
 D6 12 15 E9 C0 5C C9 81 66 32 6E 40 03 49 92 1B
 20 78 D5 32 85 90 CC DE 29 07 B9 92 85 2C F9 9D
 DD AD 48 61 98 B4 94 4F 4B A4 9F 80 64 BF 92 25
 1C 9B 7C 4B 16 FE 0A 68 AE 87 72 86 DC B1 72 68
 60 3C CA DC 3F 98 5F 41 AD 33 46 E0 70 18 51 03
 03 67 A7 A8 FA EF 48 E8 2D 7F E1 88 16 E1 46 DA
 3E 5D 9A 33 EE B5 64 1D 04 6A C9 A0 43 3D 49 1D
 26 FA 27 C2 91 91 10 C5 C7 38 B0 8B 3B BB 11 5F
 60 FB A3 72 DF 51 5D 3E 84 D3 B7 14 83 7F 29 1C
 66 73 9D 2C 23 8E 1A 0B A4 1E 80 32 9D E8 B4 D2
 3D 14 E2 C2 0E 69 B9 59 59 52 F7 29 2B 66 06 C9
 EA 8E 01 61 FA C7 B0 D6 19 A9 4B 48 77 0C B5 05
 33 D3 4F 05 8C 21 BB 87 B7 F3 0D 85 4F 2A A0 85
 CB 90 49 0F B4 A3 07 79 2F FE CB 87 E6 E9 BC 3F
 8D D7 9E B7 55 CC 08 7E 1B 7B AE E2 26 CC 54 FF
 FC F6 D3 F0 C9 6C BA 01 AE 4C 44 18 A2 D7 20 FA
 6C 79 FA 7B 52 75 FD 9A 5E F9 39 77 52 E2 B2 58
 F7 4F 73 45 A4 18 C5 9E D9 33 53 93 C1 DA 3E 50
 2D B5 CF 16 23 B1 CA 22 00 D4 23 27 AB 4E 5E C1
 66 57 BD DF 6E E6 89 4A E0 2C 5A 04 C5 DB C9 6E
 00 A4 04 6C 78 9C 07 34 C0 D9 DE 58 C9 52 BA 52
 E8 62 E1 C8 0A A9 9B 30 3A 40 3F 8D 0C B2 2A 9F
 85 7C 8C 0A A7 15 39 27 7D 7B C7 11 56 8B 3A 11
 0B B7 C3 EF 1C 9A 44 A7 22 92 81 BE 2B A3 2D 7C
 FE 6D 26 BD CB D3 91 39 9C 9B 42 F6 0A DC F4 2C
 13 E8 9B 12 04 6D CD E6 3F 7C 29 BB D7 1F EF CA
 21 09 33 90 E1 E4 48 5C 57 9B 91 66 AA 49 32 C3
 DF 49 04 0C FA DE 03 A0 6F 62 E9 B8 44 8F 57 AA
 7F 90 31 42 0F 90 E5 F8 FA 3E 9F A6 DB BA 81 EF
 35 ED 6C 67 CA 16 ED 7D F2 72 EB 3B C6 9A 63 82
 5E 55 B3 3F DC EF 83 D6 40 26 63 1F 41 53 A8 2A
 3E 14 A8 06 8E F1 64 55 27 19 FF FD 95 67 8F 8B
 9B 93 CC BC DF 8D B6 5F 01 28 A4 35 3D 2D EC 09
 14 FC B9 E9 59 1B D0 5F 70 AD B3 B3 19 1D 64 FD
 67 93 25 5B 7D CB DA 71 21 10 AF DE 68 6F 07 BD
 EE A3 9C 2D E5 BB 29 9D A2 1E 72 99 19 E5 60 0A
 5C DF A6 C8 22 E9 7F A6 35 AD 46 E2 E8 1E 68 DA
 55 7C 99 F1 40 C2 77 55 C1 1C 2F A5 A2 01 81 DA
 3F F7 E8 49 F9 E9 34 58 A1 57 71 FC 2E 48 AF 09
 CD E4 38 DB F4 26 B4 91 35 E2 52 62 80 5B F3 72
 E1 A8 E0 18 92 DC 74 39 8F C1 52 B0 3B 96 9D 81
 EE 85 9D A5 F5 EE 92 A2 38 5F 3D 8C 49 A3 C1 B6
 3C 0C 0A C1 2C 27 43 03 19 7B 7F 19 B2 12 CE 6E
 D4 5A C0 62 8A D8 8E 4C 00 3A 15 A4 16 34 74 A2
 8C 43 70 9B 05 52 A7 4B 1B 26 C6 DF D3 A5 3B 2E
 4D 9B 36 82 5D A6 26 00 A7 97 76 3E F5 CD 2E D7
 90 8E B5 57 F7 B6 30 6E 8A 82 21 15 A4 36 67 FB
 73 9D 3A 75 E9 B2 E2 65 17 C4 32 4F 3B 85 9A 7D
 36 CE E8 15 30 D2 AA 92 80 88 64 E2 CA 12 7E BB
 5C F5 7A 0A 26 06 8F 60 8B 5D 53 ED 2C 08 8F F8
 47 0E 79 63 57 E0 A2 37 DA CE 03 12 E1 CB 26 D2
 78 64 AE 8E B2 14 D5 56 51 F3 00 33 B3 F8 A8 43
 D6 31 62 92 ED 01 11 B7 A7 35 70 A2 33 8C 57 67
 C0 5E 4C F1 AB F9 D4 C2 0C 91 A5 62 A5 81 5C EB
 7E 71 26 11 D1 03 3B 9F D8 54 07 DA 37 8B 17 BF
 2E F8 E2 43 A7 35 86 DA B6 84 6C BC 9B 96 C7 FF
 0E 4B ED CB 43 7E 94 64 E2 DE A9 AD 19 1F A6 8B
 48 40 19 8B 1B FE A2 80 D4 FD FF D5 1A F7 B9 24
 79 61 BB 00 21 80 04 4F 29 4A 0F 92 0A 0F AC E9
 2F 30 D6 28 0A 57 AF F8 74 05 73 CE 31 F7 4C 2C
 26 9C 88 AF AE 43 D9 E6 21 84 60 63 E6 12 85 33
 26 5B A1 E8 85 AD 1F E4 85 68 9A B4 92 0A F8 82
 41 11 2F 07 E4 8F D7 64 47 B4 95 14 0D 74 FE D7
 F0 48 C9 05 42 63 7F 0E 33 41 7E 96 78 D8 15 8F
 51 D1 3A 2B 23 B6 FE DC D4 F9 39 6B DC 12 18 46
 38 69 FE 6A 43 38 87 70 D2 43 C2 4A BD 51 0C E5
 E0 5F D3 69 E9 55 8E 74 3F 14 F3 62 91 9F 73 03
 A6 81 6A 5F 45 2B 7A 5C 82 E1 C1 BF 0D 04 1C D2
 5B 2B 17 48 C1 4A 97 0A 68 69 FA A2 9E EB 67 D9
 03 A4 51 0F 4C B0 A4 9B 2A 83 17 53 C6 67 2A 1D
 7C 52 30 E5 2E 25 B2 58 8A 94 2F 7C FB 92 B5 B7
 41 17 B5 DC 6B 45 40 9A 14 8F 48 AC 99 FF D2 EA
 D5 D7 CC 49 E7 DE A0 51 7A 89 F3 4C A5 D8 5F 58
 37 3F 44 A2 C7 06 CB EA B3 41 A9 4A 66 67 1B B8
 56 30 3C B4 08 0F 06 09 53 23 1F AB 7F 42 C9 C9
 97 2E D9 43 B2 1A 3F 55 BD B2 FA B4 4E 5B 65 81
 2A 35 C8 48 41 B2 DC 9E 40 BF 85 76 9F 80 A1 B4
 01 07 0E EB 69 E9 F0 A1 D0 8A 2B E3 1B 68 C5 77
 48 BB 6B B8 A9 AA 2C F6 77 00 1B E8 CB B0 58 3F
 1C D1 4A 50 BC 15 5C 78 4A 43 97 8B CF 4A B2 94
 47 7B F0 0C DC FE BF C7 B2 29 C1 B0 36 3B A9 7C
 CE 13 9D DA D0 9C 50 0D E9 04 D4 7B 99 1E 90 DC
 C3 62 B6 22 27 25 C2 1F F5 6E AE 00 94 29 A2 35
 71 79 F1 42 6B 39 A9 DB BA AC 18 83 C0 C6 44 59
 CE C7 84 05 E1 80 24 67 95 5F B5 3D 31 AF 98 83
 89 5E 0A 66 E0 FE 0E 26 E2 AA 66 09 CA 7A 86 19
 3F FF 9C E8 42 AB E9 C1 B0 D3 3F 16 8D 4B 77 DF
 24 88 B1 39 12 FD 89 AB 60 5F 2A C6 DF EC D1 A0
 AC EF 0D 98 03 9B 9A D3 5B A2 1A 29 50 99 A8 95
 FB EA 72 25 36 A3 96 DC BD 03 E9 61 1D CA EC E0
 16 06 B8 1A 77 CB E3 64 DB 66 8A 87 DC 5A 35 8D
 2C DF C5 4A 2C 84 46 53 86 07 54 9B 31 88 92 65
 0F FB 6C E9 91 24 F1 FE 52 F5 A0 3C E8 1E D2 E7
 B5 3B 6D 3D 48 65 67 C1 EF E7 52 0C D5 75 F9 89
 AC 02 03 10 6E E8 4F F8 9B 14 D8 23 BF 1F D6 C4
 B5 FA 3D 4C C7 0F 65 85 48 B6 7A D5 F3 09 93 75
 53 F5 F1 3A BC 89 00 F8 A6 6D 90 6F 24 E8 1F 18
 22 CC 6F 8C 7B 98 F7 D7 EE 20 A9 FF E6 3D CF 3E
 2F 43 E4 D3 3F 13 1A 10 44 E5 66 C1 E3 96 7F 8B
 2C 7E A8 59 E1 6A 9B 53 7C 42 47 5F EB 3B 71 47
 89 1B 9B 4A 5E 93 F0 DA 1D AC 49 95 D8 8A 5B 8C
 E5 A7 1D F4 87 70 C4 FA 7E 50 7B A1 A2 B8 5F 5D
 A2 8E 79 65 DE FB 0B D6 96 FD F8 B2 87 6F 65 7E
 6F 0A 30 5D 12 24 EB D7 88 8F A6 2D AB 53 8E 22
 AC B7 FC 28 3B D7 5A E5 13 E7 35 B3 A0 D8 45 EF
 81 88 CE 35 7D 87 B1 2E 41 4D DB 85 95 31 92 32
 E1 8E 84 04 17 F3 D2 90 0B DA 97 45 57 90 5A 9D
 FD 3F 6D 1C 91 85 40 22 E3 00 F3 34 B1 D5 F6 EE
 1A 98 5D 89 18 A8 38 F1 E7 FF 69 B0 1A A3 C4 27
 B9 66 F3 84 2A 9C E1 E4 97 D1 0F C6 D9 FD E2 D4
 84 08 BA 68 55 07 49 00 97 14 30 55 7D CF 06 7E
 A5 1E 49 E2 E5 76 D9 C4 1D DB 6D 13 37 1A DA 0B
 3F C3 54 BD F3 49 F1 82 C4 EB 2E 34 47 28 7C 19
 85 03 AB 1B 16 44 AD B8 AD D8 FC 7C E2 95 DB BA
 B0 8E E7 14 E8 CC 55 0C F9 21 B5 7C 04 2D 3B 51
 42 A2 37 90 D4 0A 02 B2 58 14 9E 39 83 6B F8 B4
 01 FF 16 CA 7F AA 80 9E 2B 61 E5 E6 61 AC 2B 58
 F3 41 89 91 44 B9 13 D1 EA 83 69 AA 32 E6 DB 08
 AB 63 3C 91 2F 92 CB DD 0A EB 91 EC C8 88 1D CA
 7E 7F B9 8C FA 3C AC 57 89 06 A4 41 57 FA 89 F2
 A6 B1 69 41 45 C9 35 D0 B1 C3 86 04 9D E2 A0 9C
 0B 7C B5 A5 45 4E 8D 12 10 73 89 17 95 F9 38 AE
 BB 16 64 09 35 6E 57 92 01 C5 1A 40 F7 48 B0 FD
 F8 B3 AF 39 95 F5 33 8F 87 43 0D 0D D8 10 1C 49
 07 B6 37 FC 6E 39 40 DF 9E 14 68 02 A1 CF 96 C7
 BF CC 59 DC AA 47 52 AB 4E C5 B9 41 51 C4 30 35
 A6 A2 D1 C3 5E 59 0F 6B 23 60 4C 41 E3 62 2B 57
 B3 FF 1C 3D 0D 5F E3 A0 63 A3 BD 3D E4 B8 7C FD
 6C 55 46 C2 E8 1A 26 A9 C2 FE 77 FA 68 56 CC 58
 1E 49 59 B2 DB 64 EE C7 82 AD 94 26 55 67 A6 8C
 10 1E D9 54 EF 45 F3 FC B5 EA B4 41 4E 4A 3F 89
 6D CB C2 52 20 E9 D1 96 5A 24 64 46 C4 DA FF BC
 99 F4 3B F2 54 AF 6D 51 72 67 7D A3 F6 28 CF A7
 71 CE EF 33 5D 30 22 A7 AC 18 C7 E9 4D 0B 5F 44
 46 4A D5 2A 61 B7 81 90 1F 2F BE B2 7C E1 3E EE
 77 29 3F 9B F3 53 B3 17 D1 75 55 9C AB 99 74 45
 6E B7 59 4F 3C 5F 38 29 41 D4 A2 A5 05 93 2D F2
 7E 64 7A 7F FC 58 B1 A9 00 DB B7 CA BF 3C 05 BB
 00 DA CF A9 57 98 DE E5 AE 7F 20 7E 35 16 8F BA
 11 CE E3 02 A6 9D 0D 67 CD 71 10 69 71 D2 1B 21
 12 4C B1 1D 67 D3 09 0F 94 40 F9 70 EB 2F 68 80
 4B BD AA C6 94 EA 20 5E E0 A4 1D FA F4 5C 94 F0
 4A 9E 70 10 15 1F 5A 03 A8 BA F0 BA 67 44 21 B4
 86 BD 2A 6F F3 A6 B3 3C 4C F2 EE 3E 06 17 D3 1C
 A5 A5 70 6E 69 B5 ED EB CD 1A E7 F1 58 61 91 9A
 D1 F5 28 E7 EC DD 9A B9 CA 3A 6F 79 51 CD CD 6D
 94 BD DF 6E 9E 72 15 46 0C 24 5A 0C 8F 1F 3C 7A
 43 3B 2E C7 EA F0 83 14
* End 3116086633 3847673159