* LTspice Encrypted File
* 
* This encrypted file has been supplied by a 3rd
* party vendor that does not wish to publicize
* the technology used to implement this library.
* 
* Permission is granted to use this file for
* simulations but not to reverse engineer its
* contents.
* 
* Begin:
 96 31 15 CA 55 C7 4B B5 20 F4 68 30 B1 FF 7B 7E
 72 BC BA FC C4 96 09 E4 80 E2 A3 A3 96 70 34 E4
 A1 76 70 46 A1 C1 34 6A CE C8 32 D8 A1 70 A4 61
 80 63 4D F5 88 4E AC E2 5B 8F BD 3C 4B 71 D2 E1
 31 E1 E6 6C D0 68 40 15 92 0B 9E 1B 49 C8 25 C6
 51 82 91 39 8B 7D A6 AF D4 FF 26 9F 60 F1 E0 C5
 C5 E9 D0 33 97 2C 99 5D 9D C0 86 56 CA EA 87 E4
 C1 55 EF 7B 7E C7 BD F4 3A B4 EF 5B 5F AC 68 6C
 1C 09 DF 36 13 30 B3 C6 A1 92 F8 94 6D 43 C1 A9
 4F 98 70 CD 9A 61 8E 5F 9F D5 34 7B 3A 85 A1 D1
 02 8E 99 28 8B 3F 83 B0 DD 3F 12 C8 CD F1 4A E3
 A7 BB EC BF B3 50 6E 6D 20 B9 96 24 59 71 49 7B
 D1 70 42 82 A2 B6 F1 EF 7A A0 59 C6 B1 11 C0 D1
 D6 07 B6 5E 4F F7 E8 22 32 35 6B A8 17 3C 41 A9
 25 C4 A1 AF F6 EB 3C E9 CC 62 7A 97 B2 AA E3 AA
 38 9C 74 4C A0 CF CA 40 0A 3E 97 58 C0 4A 80 11
 24 98 02 0A 16 70 6F 2C C8 4C 5C 47 B0 2E 6E 17
 92 D5 8A 4D 4C 2F C0 FE 72 75 FB 43 50 02 13 E5
 10 E1 A7 77 21 CA 99 06 50 34 95 16 62 83 F6 02
 06 85 EF 97 F1 17 3C 8A 76 1D F7 09 AD 72 9D 08
 35 71 52 A0 54 BB 2A CB 28 3E 44 86 79 21 E4 4A
 93 59 68 8B 7D A4 F8 D3 2A B0 EF 09 6D FB 9A BD
 D8 0B 25 D2 21 C9 54 CC E4 BD D1 AF 3F 7E 3D E0
 32 81 91 22 E9 8F B3 17 A9 09 CB A2 1C B2 E8 35
 60 16 28 2E 04 58 9B 0C 46 4A 77 29 6D 6C 86 45
 F0 2E FB BD DC CE 5B A9 56 43 4D DD 98 FF 66 76
 5C 88 96 B6 F6 9B 3F 43 C6 11 D2 E4 AC 17 23 A1
 45 2E A1 E7 F8 6E 9E 23 56 51 EF F2 4F 53 98 EB
 7B F9 85 6E 81 C6 5D 03 B8 EF 8B 2D 6C 4A B2 EB
 6D 27 2E 7C 11 14 F2 BA 88 92 03 9C 0B 2C 2F 3D
 FE FA 3F F1 A3 EC 39 1B 97 17 2F 60 83 37 1B 90
 49 35 56 FD 24 7C CD 06 05 18 85 D5 2F F5 EC FA
 C3 79 40 1C 39 9E 53 B4 E5 3B 72 30 27 B3 39 97
 59 EC 32 81 22 FF A9 E6 39 14 AC 0B F4 EB 29 79
 A2 8C C7 27 3D 22 AF 39 EA E2 F3 62 75 EE 7E B6
 0C 4A 96 DE 19 42 39 30 A3 F6 0F 72 0B 2D 0C AC
 86 9C 03 A4 80 63 3F 55 C7 D1 EF A9 B6 E9 F6 46
 75 AD 33 17 9B 73 49 F3 D8 2D 0F 34 31 A2 DF 4E
 CF F5 0A F4 66 3B 26 8B 2E 18 5E 99 5A F8 8E B2
 EA BE 81 BD 14 4D 4A A6 49 4D CF 6E 01 E0 C8 22
 1F 23 15 65 27 C0 4A DE 8D DE 02 2B 4D 5B 0F 32
 A5 0A 60 86 8F 45 DF 55 21 5C 69 14 7A ED D4 78
 AE CF 6D 73 D1 8E 2C D8 B6 6F 83 49 CF E3 7A F0
 7F 01 8C 22 B2 2A A1 DF 82 F8 06 F8 9F 3E E0 47
 80 FB 2E 0C 4C D8 CF 64 78 49 B3 C6 F3 60 9B 1F
 EB 7E 60 12 0A 9A C8 94 E3 C4 8D 9F 26 41 0A B2
 49 3A 53 FB 7F 86 AD 94 BB 46 81 9B D3 CE 7C A5
 0D 3F F5 D8 7B 52 A3 00 50 AE B5 B3 D0 93 23 AC
 30 5A F2 C4 26 20 BA 08 81 7D F7 2A AD C2 AE F3
 5B DC 0B 0A 7B A2 10 51 E4 48 91 BB E9 77 28 B3
 35 3C ED 4F EC 54 31 E7 82 B6 00 55 1B D7 40 30
 F2 EB 4D FD 3D 5D 65 41 8E 54 62 73 0C E3 A8 B3
 19 BA D3 11 89 E3 90 3C 0E B1 77 CD 6D B8 77 AD
 EC C0 4C 44 F4 7D 78 3F 63 11 F4 CA A2 AA 3F 1C
 31 EE F1 16 DF F8 D2 26 E3 36 4A 7C 49 4D 54 8C
 79 20 B3 63 3F 07 7A 49 3F 22 E7 CB 0D D1 FA CD
 66 5C D8 5C 2E DD 2D 09 95 8B 62 38 26 33 A8 16
 88 34 8E 54 9E F5 CF BA 4D 81 A3 A2 0D 38 04 4C
 1C 8A EE 1F 4B CA FF 8C 6B 52 02 D9 B7 13 48 61
 57 3C 17 B6 83 D8 6D 13 66 91 1C 22 88 DF 10 B0
 34 75 E1 11 B0 66 45 80 FA 54 9E EA 64 4B 04 89
 01 6B 16 3B C6 D8 A4 E7 25 7E 9F 12 30 6D 9B 34
 1B 8E 50 4E CD 49 8E 19 2D 19 67 E0 91 3F 5B 03
 86 4D 9B 96 C6 7E 23 D2 8C A3 7E BC 6A 2D F4 33
 B7 14 96 37 D1 AE C3 38 E6 7B E6 D3 A8 40 81 1B
 0E 3C C0 13 EF 2C E7 AF 38 EB 6C 73 94 F7 49 3B
 A1 2A 9D 27 A9 73 62 B2 68 99 55 88 23 75 36 16
 8E C1 C6 34 D9 8B 74 F4 BC 1D 75 9F CE F2 B2 14
 9D BD 1E 41 13 F9 B5 AD 16 29 01 F4 DB 93 58 F1
 08 2E DE 52 9A E1 14 67 B1 E9 C6 1B 84 17 BC 05
 6E B6 78 FD BD 66 9C E4 8D 4F 00 43 C2 53 FE D1
 DE 41 CE 37 9D 13 DD 3D 85 75 4D 23 80 E7 69 28
 DD F6 DF 30 3D B4 47 18 CD 57 26 7D B3 DF 4D 68
 37 7B 5C AB 9B 57 78 CA 7F E6 21 4B A8 43 4B A6
 EB CD 14 3E A3 E6 68 56 59 C7 17 CD 10 66 27 7C
 28 D7 78 D5 C2 BD B1 42 A8 11 DC 48 69 34 D5 43
 79 C3 4A B2 8B EF 26 60 B4 EA A3 D3 6A 29 75 8D
 68 C5 04 CD 65 7D 39 6C 95 53 03 40 3E 6F 37 D4
 FB 5A 64 0F 92 2D 97 78 60 B5 E8 4A 37 D8 2A 90
 6E 61 F6 28 A6 43 80 E4 FC BF D5 D2 F2 7C EE 5D
 9A CB 01 3E 72 CD F2 9C 57 F4 8B 5F 72 A7 62 50
 4E 0A BD B2 40 7B 8E 4B CA 6D B7 4D 42 28 F5 4F
 39 5A 0C 4D F6 1A AB F9 33 46 F3 B4 7A 01 40 B2
 14 27 FA BB 38 CD 99 70 95 AB 6F C6 66 F4 9A 2F
 89 9F 1D AC 2B 5B BA A3 81 E9 FB 86 A1 2E B1 F2
 4E 92 8E F2 8C 7C FE 78 1D C1 67 49 15 BD 36 F0
 F7 D9 5E 6F 1D B1 78 C5 49 79 AD 29 3F 8A C0 EC
 EB 7C 4A 3E 52 18 A1 81 0B 98 E5 CF 24 49 D3 46
 FE BC 69 B6 61 3F 1E 69 52 CB 98 F6 23 7E 92 6E
 FF 83 75 CD 4F AB D4 B2 6A EA 74 D1 6D FA CB A2
 ED 9F B7 CA 4D CF 2A AF 84 2A 14 E3 C1 19 27 1D
 76 D4 C1 C7 E3 BE 9A 13 C3 39 2F AB 0F 90 B9 C0
 93 21 B8 19 11 AF C7 1E 44 68 6A 02 31 DF 15 81
 A8 02 93 3F 76 00 1B E9 17 2D 68 D0 FF 47 B7 CC
 53 36 9E 2A 3B 53 D0 F4 8E 94 88 B0 A4 27 EF F2
 16 AF 49 C7 A5 64 3D F7 31 AA 03 5D 9E E3 F0 B6
 85 CB 4C 2E 8A 37 0F D6 EE 87 A7 73 9C 12 9A 50
 0A D4 85 4C F5 ED EE 6A 62 2F 04 13 A7 EE C6 59
 E0 1E 82 E1 C0 09 68 3B 2C 86 97 26 F3 0D 47 2F
 E9 D9 D7 04 53 33 C9 67 33 3B 06 ED FD D9 9D C2
 13 23 7D 5A AB AA EF 56 F2 48 BD C8 76 4C 5F A6
 4A D0 A9 35 A6 6B EF C4 2B 69 22 1A 2C DE 8B 1E
 01 83 99 C8 C8 6B 89 5B DF 4B 1D 70 E8 00 82 27
 DF 06 A9 78 D8 22 58 8D 4B 1E 6A 24 7E 39 5E A2
 73 1F 6C F4 A1 C1 79 B3 16 3B 13 68 FD AC 43 49
 D3 08 59 B1 51 CE FF 7B 02 A8 64 34 E9 08 A1 5D
 70 DA F8 AE D6 8E EB FF 34 48 E2 46 64 7E 29 0E
 56 7E 24 AE CD 4D F6 D6 10 F0 D5 FF B6 87 49 DA
 E4 38 81 CC 56 F2 BD 06 68 65 88 FC 99 BA 2F E3
 EA EA 7C 47 E6 DE A8 1A 58 81 13 98 11 CF F7 72
 DC 45 40 FB 09 1B AB 1F 85 CF D6 02 CC 43 B7 8B
 6B DA BD 06 10 B4 30 72 87 AD D5 0D 0A 68 35 82
 70 72 5B 55 AA DB CC 62 48 08 C8 58 1B F7 7E EE
 70 CD 77 1E C0 6D E0 7C A3 E3 3F D2 F6 6C 62 0F
 24 B4 5B 7C A8 1A BF 4E 01 DD 6D 3C 6B 48 19 44
 94 BF A0 55 10 CE 81 8C 0C F5 45 21 1D AA 43 12
 4E CD 7D E0 27 BF BE D1 7B 87 1C 42 7C 6D CC 0D
 7C B6 41 71 D3 23 CE A7 5C 93 98 4D 2B D9 59 53
 4E EB 0D 1C 8A 18 14 FD 08 A4 23 CC CF 75 26 C4
 AB 9A 59 DA 18 40 93 73 AC 8A 15 92 95 7A 94 0B
 98 C3 B4 D5 12 39 43 C3 A3 E8 B7 D8 90 F0 CA 21
 66 B0 39 99 4A D8 6D 30 DA 3F 24 28 EB D8 3C 7E
 29 22 A1 F8 01 9D 91 2D A0 A5 A6 43 8D F6 CF C3
 F5 50 48 71 6E 68 6F 12 45 45 41 77 E8 36 57 3C
 54 10 AC 58 40 16 F8 16 EF CF 35 9D 1E 52 15 73
 16 0F A6 65 D0 FD 55 AA FA D3 25 65 44 5E 20 95
 1E 2D 74 65 B0 9B 22 27 E7 D7 E8 6E 0D 34 FF 8D
 3B 23 E8 12 29 58 25 A9 13 C5 A5 A2 08 DC C2 29
 1F A7 54 C9 78 CD 6C 84 04 03 B9 74 D3 CA 65 86
 2C DF 5D F9 17 06 26 12 F4 5B 61 18 79 D9 A1 55
 7A 2B 24 00 19 59 BC 8D AE 2E E6 4E 1D A3 ED C5
 E8 2F 15 CE 94 AF 41 6C 2F A9 02 BF 8E 06 99 84
 04 63 BB 33 66 7D 28 68 68 0C 59 7A D4 31 81 A2
 F3 9A B0 72 B3 97 26 5E E7 49 FD A7 8F 8E EA 9D
 BB D1 DE E0 F7 5E 56 9A F8 D1 26 33 24 14 6D D7
 19 48 2C C2 D0 C7 6F 0B E3 32 49 58 C9 21 DF BB
 16 BF 23 2C 69 6A 67 93 A0 23 E6 26 3A 68 1B D5
 F5 94 C4 57 D9 05 B4 FF 0E D6 55 13 05 A9 39 17
 1F 8C 02 A7 D1 71 7E 2D 3A 9F 27 A7 DC B7 68 EF
 54 FF D3 8D 83 5F 95 B8 B4 08 83 CD 59 1C C0 E6
 78 63 83 A5 84 3F 2F 4B 30 8A B5 D3 36 67 FD 82
 EC 45 05 96 85 71 87 A5 17 49 D7 20 A1 4B 2D 4D
 74 B5 3D 9C A7 12 07 79 3E B7 89 F8 A2 CC 83 FD
 E4 54 40 B7 DB 5D 56 82 27 39 A9 AC 25 82 63 AB
 29 CB CA 93 7A 91 72 3C C3 E8 DC 39 7B 20 35 51
 6C 9C ED 39 98 0F E8 39 32 2C A1 2F 41 B6 78 B7
 25 63 26 82 46 3D 47 5D 84 07 2B 69 4D 36 37 A7
 F9 71 F9 91 64 6F 1A AE BD 70 8C 93 5B 69 E1 23
 A5 D9 B8 9D 45 7B C0 0F 49 69 87 92 23 35 F6 79
 2E 16 D0 EF F5 82 CA 91 68 6F 5C 13 22 20 37 00
 EB FF 56 FC A1 12 ED D1 D7 69 05 C9 3D 9A C8 F0
 04 E5 A3 DF 17 71 14 F4 8A 73 D7 2E 75 86 D2 84
 FE A7 EE 31 21 44 03 D6 B1 0C 64 A6 3B 2E B8 E2
 C2 7D 5E 73 76 AB 0C 31 BB 09 C8 80 D6 BE 2C 13
 F5 63 40 2E C4 3F 9B D8 9E 47 65 86 7B 3F A9 62
 E6 86 3D 4F 33 81 14 FA F8 0A D1 18 77 FA 5D 38
 59 E4 DC B1 3D 70 05 6F B3 C9 92 2A 21 C6 CD 1B
 63 B8 EA 88 D8 BC 28 10 5B AA 3A 79 F8 BF 61 4F
 12 63 E0 AD 98 13 A0 B3 B6 CB 2B 0D DF 05 70 E0
 2F CB 76 97 3C 3B F3 9F 41 CF 26 90 9A 1D 63 05
 5A 76 0C 28 32 DD 6D 3A BB 65 2C D3 08 C0 61 47
 92 EC 86 F5 2F BA 19 B7 61 74 84 78 92 2F C9 53
 32 29 81 F1 36 59 EC AA 19 94 DC 67 87 04 0C F5
 D6 9F 36 7A B7 EF C1 9B D7 9C EB 97 30 CD 31 B9
 FA AC FC F0 72 20 2C 60 A5 24 F4 27 EC F6 20 C4
 D3 64 72 34 54 E3 ED 3D 76 FA DB 52 5E 18 59 C2
 FB FA 8A 4C 25 50 82 4E 17 B7 46 86 72 87 4C 6C
 B9 4A 55 1A C7 61 34 DA F9 F3 A0 E2 CA 6D 38 E8
 49 20 CD 30 B9 F0 FC 4F 42 5D 33 C6 D7 F7 3B 23
 6C 49 86 02 B6 0B 70 76 47 5B 30 A2 17 7F 08 E0
 9D F5 58 5C 24 B6 EB 52 5F 36 C6 F6 59 5E B9 DA
 3A 67 8B 01 22 CF 5B 11
* End 3738920343 2697938239