* LTspice Encrypted File
* 
* This encrypted file has been supplied by a 3rd
* party vendor that does not wish to publicize
* the technology used to implement this library.
* 
* Permission is granted to use this file for
* simulations but not to reverse engineer its
* contents.
* 
* Begin:
 61 14 0F AC 5D 9C 75 CA 54 70 13 27 85 C1 76 BD
 05 08 0A 8A 9E AB A8 42 14 5C 8A 44 FC C9 B7 66
 1A D6 DD D0 6D 25 DA 58 F2 FA 40 0A 7C FA 1D C9
 3C 5E DC 96 9D B0 35 04 30 DD 12 1F 1F F4 0F E1
 C5 3E 7C A5 47 5B B5 82 71 FF CC 1D 5D 17 5C 4C
 3E 0F C4 79 8D 89 28 DA B8 B8 5D A9 01 5B 81 8B
 9D 3B EA 82 CE FC AC 74 BA 44 DE 2C 21 17 6D 70
 9F CA CA 1D 8D 71 41 C2 7B 04 66 96 4F 80 E9 9E
 14 51 E2 82 30 D1 D3 40 15 97 68 5A 94 53 22 8D
 4C CF 87 FA 0A 17 96 C6 A7 A2 D3 57 9D 8B FA C7
 AE 4D FD AC 83 45 55 F8 4E 60 E2 98 28 BF A5 85
 D8 54 08 C0 0D 8B 85 78 59 C4 AC 94 58 3E 8D F3
 EF E6 05 67 76 81 67 5A FC A4 93 B7 54 A1 CD 55
 5B D0 25 94 E8 D6 7A DE D1 62 08 1C 3E 6D 78 63
 5A C2 04 2F 1C 45 8F 7C B8 44 5B A9 5B 98 D1 8A
 F2 E1 9B AD E1 11 DA E8 6F 07 78 D6 85 BF 28 1C
 5F A0 5B F0 E2 FE E5 DD 6E B6 67 74 2D 66 55 A4
 A3 49 8D 53 1D 3E 78 35 A5 01 6B BD AD 5A A3 DA
 D4 C5 28 CD C0 5D 1E A1 D1 66 F7 07 18 70 6B 75
 F8 0F 37 C9 72 87 FA FA 36 87 09 B7 EE 10 8C EB
 00 03 BC 99 A8 57 E5 A1 1A 0D 30 41 F8 77 4A 3B
 24 DC EF 95 1A 41 CB 3A 55 69 EF E0 68 DC AE 9C
 4E DC FE 58 DC 9B 62 47 A1 73 FE 78 5B 6F F3 93
 EE 54 5C 9A 23 7A 44 C2 A5 F1 A7 57 04 F5 C2 CE
 06 2A 8F 45 FD 3F 64 AC C3 76 D2 40 C6 B6 55 A6
 BF 18 65 57 92 FF A9 7F E5 49 0A E7 2F 72 9A F3
 16 F9 8B 84 AD 66 FD 98 81 29 B1 57 FB 92 97 02
 1C 8E 9A CF 61 3C F2 AF 9E F3 37 75 49 6E AE 27
 FC 88 E1 0E 29 BB AF 86 2A 70 1C 20 B1 3C F1 88
 3D 9E 22 D8 27 90 43 0B 17 EC FB 72 44 FC F5 FB
 74 C9 C1 D0 8F 25 AA E0 DD 1F 7F 77 7D CC 42 5C
 32 7D 2C 46 38 73 49 FC E7 EA 41 37 40 B0 EF E8
 AE 71 22 C2 CD 9A 39 43 1D 8E F8 EB EA F1 BE 61
 84 D4 E0 F0 22 E4 F3 F5 43 2C 70 84 DC 6D F6 60
 AA 3D F8 A8 69 86 91 6B 04 E1 1A 6D 82 64 39 42
 FE 2A BF DE AD 12 23 85 00 5E 20 9D DB 14 03 BE
 C5 D5 BA ED D6 DE 54 29 3F 89 6A 91 7B 43 46 4F
 0C F5 7F 2A AA 3E DC 82 01 6E A5 34 93 4D 1A E0
 19 07 95 45 9A 60 79 9D EA 52 A6 69 44 6D 5C CF
 FD 4B F9 BB EE 17 45 92 DE 63 89 42 89 88 E6 D4
 6D 96 9A 61 86 F7 C5 90 D3 E5 44 98 40 7B A3 E2
 B4 1F 75 CD 0A 35 53 ED 86 2E 3C BC D8 EA 6C 3C
 47 9D DC 18 4D 0C 6E 00 28 B8 45 B5 F7 65 20 F0
 25 C4 F5 EF 19 BD CE 5A 6A 19 32 59 56 08 C5 13
 F1 36 D8 71 8A 0E BE 73 00 D8 9F 23 F6 FD 0D 35
 30 51 AB 77 03 60 FD CF C5 10 94 36 5E D5 FF 93
 8F 50 8D 51 55 12 89 B6 57 4B F9 E9 31 62 56 72
 63 93 4A 06 C0 9A B9 0B 52 26 CF 8D 08 3C 0F A3
 51 DB 90 35 08 B8 18 23 2F DF 67 52 60 80 EC E2
 0D C8 36 7D 59 E1 BE BF 29 62 D5 23 B9 40 5F 36
 81 E9 49 1D F1 5E 2E AE C8 33 88 72 32 3D 61 30
 15 62 3A AA B3 5F C9 F3 5F B3 91 01 FB 12 18 0C
 CA 08 F0 D9 21 54 C0 BC A9 5B 02 D9 51 AF EF 07
 05 74 E8 0E E2 72 DC F4 23 4A 6F 93 1B 79 09 5C
 85 E4 FD CA 6F CC 28 63 61 49 16 F5 0E C0 5B 88
 87 36 DD 9A 15 EA 29 46 07 DF C6 14 CB 83 DF D5
 68 37 65 42 74 3A 5F 4C 18 19 C8 88 9B E4 FD EF
 EA 42 D3 06 A3 1C E4 95 BA AC 9C BD 7F DB C2 99
 8A FA 44 2D 2D 3D 1F 69 2A 59 1E F5 DE 9B 6D 79
 1D 05 4C E1 14 58 68 3F F2 08 04 02 23 30 8C 31
 3D 19 28 E6 05 AA E3 68 76 8E D9 D3 2F C2 E7 0F
 9D 00 05 5D 54 EA B2 FF 05 D3 4B 3E 07 D1 86 28
 AA FF CD 4B 03 C4 8A AE 11 CE F6 06 20 C0 CB E9
 D4 16 50 EE 2B 4C DD AB 89 05 9E 3F 27 14 31 68
 93 F1 82 B2 11 C3 0C 64 2C BB 4C 71 2E 77 9C 61
 89 20 8E F5 2B 52 F4 33 E9 F6 8B 0A 57 69 EB 79
 B3 CE 16 00 3A 0D 4D 4E BE BB E9 65 4A 8D 4F 5D
 AD 20 4F 43 86 1B F7 3E 31 9C B4 6A DA FE 0E CD
 31 1E 0F 68 31 B2 A7 1A 82 FD B1 BD 8C AD EA CF
 9A CC D1 5D 7D D6 2B 45 AD 0E C7 B0 5F 9B 08 72
 94 F4 E1 B9 30 EB 44 0A BA 59 FF A7 7E 73 49 9D
 2E E2 EB F6 02 02 3E A3 71 AB EC B5 7A A0 88 8C
 10 24 3B BC FE 71 38 3C 9C F4 08 9D 03 0B F1 13
 CE E6 19 7B 5C 67 91 9B 79 36 82 B0 81 8D 1C FA
 3A D8 58 1A C3 D8 AA 30 5C 50 9E BF 10 A8 69 62
 E2 9F D2 85 A0 1B 13 A1 45 21 6E 93 BF 24 0F FF
 C6 88 5D AB 8E 46 F6 63 08 B9 9A 04 00 1D 6C 15
 D1 AA E1 13 3C 9E 25 83 41 93 C3 DE CB 43 AB A3
 D0 05 EE 42 94 AE 4D 30 AC BE BE 07 E2 81 2E 38
 9A 10 47 99 00 D3 FD 12 52 3E 3D F2 56 49 68 EB
 3C 44 81 22 4E 5E 94 80 66 1E 5E A5 19 9F E8 2D
 F5 F4 04 1A E8 5B E2 24 F9 3E 4F 24 FB E2 BA AF
 29 D6 91 E1 38 09 FD E1 7E 10 BC D5 5A 10 DE 78
 22 37 9B 3B 57 8B 02 68 D8 01 46 B4 67 38 BC E1
 DD F5 D7 D1 AA 2C 42 31 4F 51 99 F7 D9 BD E6 F3
 24 EE 8E CE 68 E8 56 6A 08 B9 17 E8 FB 0B 36 87
 19 A9 0B C9 80 B1 D5 D0 04 41 98 FB 07 B5 8A 68
 33 99 2D C2 AB FE AC 26 91 40 A7 7F 7A 43 FD 92
 C5 AE F3 42 41 EF F2 CD 52 FE 70 52 07 40 FB CE
 24 D5 05 A6 72 21 C4 33 5B A6 58 F2 5C E3 39 C1
 9F AF AF 7D 13 39 2B 2B CF 20 9E B2 27 7C FA C4
 EC 4C E8 69 CB 2F 49 B2 19 99 AC 79 4B 8C 2F B0
 18 A5 A1 23 5D 1E 76 AE 74 B2 93 BF 88 E3 BC 79
 D3 03 59 8B C6 29 D7 C9 0B 64 1B 61 99 98 5E 0E
 77 26 7F 3A 51 DA AB 0F 9F C7 F3 92 C5 5E 4D B4
 A6 34 94 B8 03 6B B9 10 1D 03 A9 AF DD 85 EE 6D
 4A FA 11 83 02 CD 8E 33 6B FD 2C CD 84 33 D4 1D
 AB F7 D6 8E 5B 46 A9 A7 AD F7 1C 9F F3 18 7D 7A
 79 87 5A 20 24 E4 0C 16 22 03 0E AA 01 FB 8B B6
 BF 14 07 9C 77 E5 D0 79 45 30 9E 89 87 83 80 2E
 32 A6 EA 7C BA 0B 2A 2C C1 12 60 8D 68 7B F9 66
 D6 56 CB F0 06 BA C2 9A 28 31 CF E8 C8 FD CD C8
 6F F4 F7 D1 44 F3 B0 A4 BF 13 52 2D BC A4 C3 BE
 C2 F6 CD 5C 3C 6A C1 03 72 1C B2 50 60 A3 C6 76
 77 14 C7 84 BC 27 4B 13 DE A3 81 DA 64 F9 EC 24
 C1 D3 FD 33 04 B3 00 ED 7E 5B C8 12 00 B1 7F 69
 4C 4A 09 FE 17 29 F0 44 A5 CA 73 E9 2A 05 C1 83
 37 8E 52 E0 4B 10 90 89 D4 72 E1 ED 40 AB 69 BE
 26 08 D5 38 64 9F FD 11 79 3B 83 30 AD D5 4D 64
 77 94 BA 46 99 76 FC 69 B8 C9 1C AA C1 13 8D 04
 D3 1C 11 E0 8E 2A 8A 30 0B C8 81 E5 B1 5D 83 D2
 24 C1 82 EE 4A CD BC 30 1E 75 C5 3A B7 5F 42 3F
 6C CA FC 0C 68 85 B0 F7 8B 5A 7E C3 49 D2 9B C8
 C8 3A 1D D4 2D FC 48 3A 4D A6 CE D0 F1 03 C3 D6
 A2 7B D2 FF D6 90 CB 4B A2 F2 E1 D5 30 3F 8E 84
 59 02 DC DC BF F0 CC D4 91 D7 4A 6B 58 11 C4 AB
 11 F3 06 D5 02 B8 80 0D 7A 51 CA 53 33 6F C3 03
 5B B5 AC 1E 13 8A 62 D5 5E 44 D4 4F C1 CA F3 0A
 0B 65 FF 9C E7 8E 1C 7A A7 A9 DD F1 20 F6 DC 19
 53 18 63 67 AC F3 55 03 78 80 64 F7 88 7D 10 4C
 21 3E 8C 9A F8 20 3B F0 3D B2 45 C7 03 F8 01 B2
 DE 76 08 4C 02 A1 FD 8A D1 78 07 FF C6 DE C5 3B
 48 09 04 68 18 7B 08 80 46 0D CC 3A 4E 10 0D FB
 30 CA 8A ED EF 13 A4 3F BF 03 90 4D 8D 31 B1 C8
 EA AC AB AB CC E2 A0 5F D4 CC 31 5D DF E5 61 2D
 1C 31 FF 90 48 AD 5F 66 B3 90 CD 75 F7 0A 67 53
 41 0D 79 AB 98 35 D5 46 AB F8 86 BB 74 39 35 01
 4D 05 49 BE 30 AA 99 95 78 10 14 EE CE 47 E5 EE
 8F CB FC 19 74 93 87 D1 A7 F2 A1 20 A2 1E 92 DE
 50 42 B2 DD 78 76 91 9F B4 D8 D4 75 78 9B 78 C7
 A7 06 3C 76 D6 A2 A0 1F 6A 56 0D 1E 3F B4 0E 72
 8F 86 83 C4 96 14 99 CB 41 2A DE 9D 61 2B 86 90
 93 DF FB 44 15 B2 A5 FC 4B 85 CD EF 20 A3 08 E0
 75 F5 25 B2 5A E9 C6 DB 0D AA B0 BF C2 4C 4D A7
 40 DC 79 8A 2B 57 F5 A5 32 00 A1 C1 46 3D 3E C6
 35 F2 01 F0 00 2F 91 41 04 A2 B1 81 6B F5 91 17
 26 65 BA 37 2B 90 58 35 5F ED 3D 21 3D F0 B2 82
 91 2A 90 46 02 54 C0 01 34 BD 86 8E B6 82 0A 32
 E5 93 D8 EB 48 8C DF 64 65 75 DF 52 EB 5F 33 62
 1B E7 5C 7D FA D9 70 7C F7 3E 8B 1A E4 E8 49 D5
 8B 3D 05 74 76 7F 06 A3 AB 90 AC 14 1C 07 F5 18
 6F E6 AD 75 E2 90 84 44 90 33 7D 1B 5D D9 22 10
 0E 8F CC 7A 96 B3 02 60 3E 1B AE 54 08 C0 15 48
 CF 9E 77 BC AA 18 7B 9F E4 6B EB E8 5D CC 4C 18
 1A B9 CB 9D A3 5E 8C 2B 76 18 12 DC 63 52 F2 AD
 11 6F BD 24 5A C5 25 DE 77 BE 83 1F 29 4D 0F 4C
 72 B1 9F 02 E2 B3 10 A6 8E 9F 36 26 B8 55 45 23
 2D A8 C6 24 1C 26 94 E9 56 8D 1E 02 ED 23 7D 8A
 62 F5 C5 81 1F 08 A4 9C CF 4D 3F 08 4B 93 85 ED
 CA DB 2F FC 3D 59 09 50 4B 4C A8 91 A9 2E 14 9D
 A1 0B 00 5E 4A CE 89 50 B1 AF 17 43 7B F7 B2 B3
 28 CC BB D2 0B D4 64 DA 2E 16 22 E6 74 5F 81 67
 66 7E 0A 1C 4A F0 08 3B 6C DE C0 C9 6B 6F 46 98
 66 5F E4 84 9B 70 D6 E0 67 18 BA DA FE E1 AD B0
 70 74 B0 88 F3 67 CE D9 6D 05 E2 01 7D 30 8B 39
 01 5B 4B A5 1D 90 F0 D5 C0 3E 31 13 D7 E4 90 55
 60 BE 46 FB 80 85 01 3E 5F 10 C4 F3 F9 02 DB 4E
 1E EE 3F 0E 94 6D C7 13 1E 80 4B 1D A2 2B BA 83
 1B 3E 4A 5E D4 F3 53 AF BD 0A C4 00 E0 78 E0 D9
 91 D1 DB 5B E1 B0 C5 5E
* End 4025837643 2202609619