* LTspice Encrypted File
* 
* This encrypted file has been supplied by a 3rd
* party vendor that does not wish to publicize
* the technology used to implement this library.
* 
* Permission is granted to use this file for
* simulations but not to reverse engineer its
* contents.
* 
* Begin:
 55 44 12 8D 55 AD C2 31 7E A3 B7 9C 7A E4 53 69
 26 80 28 76 6A 72 89 46 A4 62 63 10 39 D2 9B D6
 AD 30 A9 09 0F FB 79 89 A3 37 4D D4 53 C3 35 E1
 91 F3 99 11 E7 85 0B EC C1 F6 05 37 10 82 76 80
 D9 97 BB EA D4 29 3E E0 49 5B 08 93 19 10 35 F8
 03 AB BC BA E3 DE 4C FF 69 1D 21 5C B3 EA 52 76
 C5 8C 0A C6 93 D7 22 70 63 25 E3 FC 01 7D AB 38
 DC E5 57 86 24 4B A8 8A F0 9A E1 2A 47 FA D8 5A
 6B 06 BD 46 A8 40 0D BC 0A 1D 2E 9A 14 ED AE 43
 FF 30 4F 18 06 E8 DB C1 3F 81 7B 39 FE 47 79 27
 14 E0 5D 79 62 48 46 3A 88 17 14 DB 39 26 3D A6
 8D C0 88 C8 EB 50 8E CA F2 01 0A 54 B2 55 B4 2D
 1D B1 8A DA DC 4F FC 43 43 53 8B 64 57 90 B2 66
 EB 0F 88 F2 00 3A 90 37 C5 45 4E 54 EF 42 27 42
 99 AE C9 B8 B8 ED 78 F0 A3 1A 11 25 4A B9 11 52
 47 56 54 1F 00 8B AD 9C 92 E6 7A 31 1E D6 65 C0
 14 41 4A AA 8C 4A 01 E6 05 26 0A 48 35 93 F3 14
 49 BE CC EE 60 AF 0B 68 EA FA B6 0F 3F 14 73 7C
 CE F0 07 A4 A2 B5 2F 80 33 4F 65 31 05 0B EC 70
 33 FA D3 3E 70 70 37 CF 37 31 F5 D6 0B 46 2A AF
 02 3A 63 5D 6D 3E 2E 34 DE 7E BB DF 9E A6 FC 9B
 A0 DB 34 5E BE FB 3F 27 DF 69 11 30 AD D8 D9 C6
 32 88 35 C1 93 E3 05 EE 38 95 5D 94 B5 F7 03 5A
 F8 4C E1 4B 7C 2E F0 6A 3E 44 B4 DE 7A E1 71 F0
 D3 2C D1 B2 11 A0 D7 8C B5 06 6F 53 F8 D3 D3 50
 EB 19 2B 75 40 4D 53 37 4F 29 F0 74 BC 1B D1 E2
 D5 5F CA 17 54 3D B4 20 ED 5D 80 BE 55 88 E3 C4
 09 82 9D 30 6A 41 85 2C 75 24 11 70 30 8B 49 BF
 B3 B8 B0 73 2F BC 56 63 F5 55 E7 A2 F9 35 3A 7A
 0C F6 9F 0C 2D 3B 15 58 C8 0C 4E 98 5B B5 2C 79
 1C 1A CC 21 3D C4 01 C8 D2 A9 AD 1C 00 08 2B 16
 18 95 A9 8C 3A 5C CC 74 92 0D 88 21 1B E0 DA D1
 D2 98 E3 32 AE FC A8 9E 4B 80 04 EB 17 4D 0B 94
 CE 1B 1D 24 1F 57 2B 59 33 57 38 71 E0 AF F5 1A
 AE E4 9F BE 28 B6 7C 35 44 4F 4D D7 FC 59 B5 30
 8B EF A9 CE F5 F3 D9 F4 A8 02 C7 BC 08 AA 1E 01
 E4 78 FF 57 83 BB BC F4 D5 2F 9F B9 59 44 63 30
 38 2F EA F8 FD 5F 25 50 23 DC 32 D5 E4 B6 42 7D
 EF 27 AC E4 56 B6 BA 4B 08 74 11 F4 42 CE 71 C9
 A2 4B 7B 61 3A 8D 22 FD C0 78 3B BE F9 33 6E 99
 19 AC 83 23 A4 9F B8 3C DA 82 5A 80 29 AA 84 3C
 8C EF 1E B5 6A 80 80 D1 5A 15 03 68 FA 51 9C 78
 53 E5 C2 DF FD 68 56 CE 9C FC 15 24 B6 B1 52 B7
 E7 FF B2 A6 7C 91 B7 59 5B ED 45 21 D9 14 AD EA
 D0 D2 4A 07 F5 66 C4 63 D0 6A 7D 7D A0 06 C8 4B
 B0 1B B6 F8 70 5B 6B FB 6D 0E E5 38 91 3B 13 9F
 11 C6 C6 4D 2B BC 3A 41 5C DC 49 26 F1 EF 92 0B
 C9 27 38 86 82 AC B0 63 D5 70 CF 2D 25 40 3B 43
 6D BB 25 CF 37 E1 C2 88 4F 88 B1 DF 0C 55 5B FE
 E1 EA 6F 73 0E 9E D2 D8 8E 65 8D 8A A7 75 AB 38
 6B B0 2F 67 58 39 45 E5 9C 43 7E 0C AB 06 8E 71
 97 AC 62 F1 AB EA 47 45 9A 33 A3 D8 91 12 39 8B
 93 39 D5 F5 BF 65 6C 39 67 1F 2B 8F A6 44 F3 C6
 A9 DB 14 D9 40 A1 C3 4D 4E 4B 3D B8 41 1B 0E 85
 D9 DF 98 11 E1 7A 25 5F B1 C1 5E 0C 18 8C F4 2E
 20 45 92 1A E7 53 10 17 95 93 F2 DF 09 7C 00 6E
 6F 95 10 9A 50 11 46 86 98 79 9B 1F 5A 2D 41 48
 77 45 1D AF F1 9B A0 F5 B8 98 A0 FE F8 58 25 EA
 2C 06 86 30 49 9E B7 CF FC 93 62 3D 59 75 42 1D
 5D D4 B5 B4 45 C0 94 93 60 A5 3A 7F 7C 3F 1E 56
 00 50 DF 88 AA E8 8B DC CE 73 CD 10 39 3A B2 C9
 53 45 1E ED 1C 16 33 72 6B 65 91 18 21 EA EA 51
 AE 21 18 A1 57 C8 26 23 5E 00 58 A1 D3 1C 13 84
 D6 C5 EE 7F 5F 85 47 5D 2F 58 2A 0B 0F E4 3B F9
 32 4C E8 EC 29 7D 81 03 89 E5 0B 74 62 B4 90 AC
 A4 9D 97 C5 8A D1 40 61 82 38 A6 01 75 F0 8A 76
 A3 0C F6 7E 7D F6 D9 8A 4D 7C 3A 96 A3 EB 37 8A
 28 10 CB 21 8A 5D C0 BE E2 53 D5 F5 18 32 57 0D
 8A 5C 93 E3 29 01 9B E7 53 21 BD 72 49 F0 8C A4
 7C 56 AA DF CE 49 B5 BD 34 EB AF EB 5C B2 34 2E
 58 CF 0F 80 30 7D C4 F0 27 99 DC 70 DC A1 C9 17
 5B B0 CC 53 52 29 FD DF 8D 2A 83 6B 4B 27 BA 7F
 2E D8 A4 6F CF 2E D7 FB A0 1C A8 1A 7D AB 28 0F
 68 31 B4 12 9A 57 81 F8 49 76 93 C4 C5 15 76 B2
 49 31 79 3E 65 F7 E6 DE 48 D8 08 74 D0 16 B8 4D
 B9 7E D6 6E 07 E1 5B FD 43 1F 37 91 5C 74 66 1E
 6A 98 5C A1 AC 24 8C 53 2F DF 9C 99 B4 FE BC BC
 56 80 B9 A2 10 40 44 56 17 F3 F9 D0 DC D5 8D 72
 57 6A 58 C7 99 A5 D9 B9 8B 54 40 45 5A B9 FA D0
 E7 26 64 9A AB 5E AB 56 EB B1 C5 89 4A 0D 56 C4
 A3 88 37 CC 8D 25 AB 4B FC CC 09 6E 16 47 B3 CA
 94 DC 1F D1 95 2E 07 A6 8C 2C 4B 56 DC E2 7D DA
 CA 8B E7 CC 47 9B D2 EA 3E F6 1D 52 0D B8 9A 78
 E0 70 60 B9 28 EC E2 26 8C FE 88 E2 0E 11 97 55
 4F 03 27 75 4F 51 6D 4E 4E 89 FC 23 76 61 5C 6E
 0F FD 2D 7E 8F 55 0D 2D B4 1F 19 13 12 B6 9E E0
 B1 3A 2C 11 E6 AB CD 41 61 DE 3F 50 57 81 E8 5B
 5A 6F E2 1E E8 5D 29 5C 93 EE 85 8A F5 F3 10 2B
 9E 98 8F FE F8 8C 15 BC 1D E0 9C 2F 04 B5 61 8A
 6A C3 62 2D A9 F1 51 15 4B 6A B1 8A 20 AF 27 77
 F9 A8 5A 4E 52 FA A4 BE 88 5B BB 1F 60 EA F3 90
 AB 75 E9 68 B5 D4 F3 36 11 92 B0 99 E8 2B CF 35
 E8 6D 59 D6 1A 9E 67 4D B1 2D 77 FB BE 7B 17 88
 8C 3D E4 EC 1E 53 6E 30 60 7E 8E 60 40 B5 3C D5
 EB 9F D6 F0 60 F5 C4 54 37 27 6B AA DA F5 EB 71
 91 11 E3 81 19 F7 90 C1 ED A4 FA E9 DD 0A 00 77
 C8 CB 14 C0 7C 31 39 65 3F 1B B1 74 65 00 17 16
 36 54 99 D0 44 A1 AF 3C 44 62 27 F5 28 2B 9E EA
 A6 4E DD 17 76 A8 83 B4 BF A1 E7 B3 30 D0 7E 53
 48 A0 45 76 8F 2E F4 D8 BB 3A C2 6D 96 FC C8 AC
 3C 36 13 F9 5A 55 24 00 D5 59 8C 3F 90 AC 1A 43
 7C B7 BA 79 C5 9F 95 D5 04 44 43 9C E6 C1 E1 9E
 0B BE 5F 77 4E FD 2B 4B 58 A9 EF AF 67 EF EF BC
 52 24 B5 45 B7 94 32 42 E0 44 6A EB A9 46 9F 03
 78 11 D4 32 EF B2 A0 F7 08 E0 E9 A5 8F B6 6E A8
 36 F1 5C 5F 8C A4 F9 D7 87 4E 28 36 B2 E9 FB 06
 33 29 AA 8F FF 21 96 A4 20 37 10 66 A8 A3 1E AE
 A0 51 6F 50 4F 4A 91 EF 40 6B AB 8D F9 B0 66 14
 88 EA F4 EF 6B 40 22 EB CA B3 8F AC 91 84 9F 77
 1E 82 78 A8 69 2B 89 0B 10 00 20 60 B1 DB 93 B8
 96 37 96 61 91 FD 9D 2F 2D 06 0E 3D 7A C9 53 A1
 A0 C3 D2 D0 C4 42 03 07 FA 53 3F 4E 14 A8 B9 0B
 D0 D4 7E B7 1A A3 DA A3 35 76 E1 F0 3D 70 AD 84
 EF 63 6A 5C 4D 1F EE 43 73 F1 6D 54 15 E7 4C 3C
 C0 B9 11 88 61 04 52 7C 5D 04 9C 4F 89 EC F7 D1
 28 54 60 86 B4 52 AF 97 30 A9 FA 7E 54 D0 DB 2D
 1E 63 71 C9 3A 54 BF 43 AA 84 1B B7 34 16 A3 2F
 73 F7 BC 1D 8F 86 F4 A2 C4 21 91 64 3D FB 1A E6
 65 97 A9 6C B2 12 C1 8F AF CF 4B 41 6C 8D D4 C0
 D6 3C 27 D3 1A 6C F6 AC 2B 4F 00 8A 30 3D 23 31
 C7 D7 EA AC C0 3D E9 E1 D5 C3 E2 3E 17 51 B3 57
 84 5D D7 C5 01 D0 0E 65 90 56 8E A9 36 66 9D 76
 44 AC 6C 3E E6 87 41 25 B9 D5 A9 81 A5 E9 0D AF
 41 38 1E 80 90 9D C9 76 33 8E D8 F4 CD 87 6B 8A
 45 0B 66 C4 B5 A4 C7 3A 08 59 E8 9C 90 BF 28 D5
 D0 DB 15 D4 1F 1A 1A 9C 5F 9A DA D2 25 F9 5E 62
 BF 48 DC 55 01 EA 6A 96 2B 44 A7 5D 11 A1 CE 7A
 0F 41 AB 48 F4 75 93 DE 25 6F 6D CF EB BD 78 83
 47 0A 72 2F E5 74 AE 52 93 81 6F 84 1F AF 5E DA
 95 09 C3 5F C8 53 86 3F C5 3C 24 AE 21 34 2C 07
 B6 C6 02 29 19 B0 A4 C2 E9 89 F0 0F 39 35 C3 44
 AC 6A B0 43 46 55 E6 46 D9 F8 80 A7 F0 21 DC 6C
 48 C5 1E 47 E7 0D FB 87 B0 D7 9B 37 46 81 7C F8
 55 52 63 C9 D3 E9 96 4C E8 9D 95 2C CA D0 05 A9
 F4 91 5B 9D A8 D4 B8 41 65 07 82 67 C1 C9 16 71
 93 D4 2B 6C 11 9F BF 41 F4 13 97 D2 2E 84 00 3E
 12 5A 15 AF B7 DD F2 C1 BD 02 D4 CB 0A 50 B2 D6
 15 FD BE 70 02 CF E1 20 0F 88 E2 FB 5D BD B5 FE
 D6 0B 2E BF 66 4D D2 E4 AE 08 50 7B 86 21 74 25
 08 57 BB 6F 60 46 23 B6 FF A5 E7 21 49 A4 48 35
 25 3F 89 12 AD 0A CB 7E B4 9D 23 D3 8A A1 C2 5F
 8B 01 9E DB C2 B4 F9 08 FA E7 91 4D 96 5F 0F AC
 F0 2B F6 A9 8B C4 DD E8 64 B2 BA 07 DB 56 7A 35
 BD 2A B9 84 76 B7 1E 99 C2 E6 2C B1 D6 15 8C 07
 38 EF 09 BE E6 A9 E3 DF 89 D2 A6 4F C5 E3 D0 FA
 5D 78 10 96 97 FF FD 94 37 51 40 16 3A E0 8E 50
 36 92 E0 AE 17 60 B3 3A FD D2 04 1E D3 D0 67 FF
 A5 A9 FC EB 79 02 CE AA 4A E6 4D 3A 59 BB 7E D2
 22 04 1F C4 24 86 51 61 EA B3 02 41 64 27 E9 C9
 55 78 CE 26 3E D6 A9 8B 09 D4 60 48 E5 C6 D8 44
 4B 83 B6 AC 34 7A 99 C7 ED 93 0C CD 84 F5 42 C7
 C3 3B 1E FB EF 9C AF 53 ED B7 63 72 4A A4 2A 95
 BC 3B 1E 10 17 AE C5 CE 01 52 53 40 D6 C4 C7 94
 E3 03 4C 94 9A 43 2D F4 01 D6 45 35 F6 13 EC D1
 B3 DC 47 A4 67 3F B7 3B 64 05 DA 2E 92 96 2E A9
 88 9A 98 1E D6 7A CB 26 98 D4 44 3D E3 A8 7E EF
 6A 82 EE 6B 0A 3E E4 49 DB 3D C8 84 2B A8 D4 25
 66 47 F0 D4 3A 6E 50 36 62 F7 39 B3 50 E1 CA 4D
 35 02 18 9D DA A0 DE 19 83 9B 12 DD C5 08 5B 65
 32 BC BE 74 44 F9 CA AE 65 33 66 78 C0 29 25 CF
 02 49 8E 86 03 3B 93 37 C5 07 FA 2F 21 DB 94 A9
 2E A1 EE A8 59 C6 C0 F9 FB 20 74 3F 37 4A FB 72
 F1 D9 26 20 94 5E 1B 0D 0A AB 96 9E EF 73 30 C1
 BA 51 AE 5D 51 35 4B C9 A8 7E 38 65 11 69 71 3F
 14 04 0F 64 3D 14 AD DA D1 1A E1 ED E0 6F D1 01
 B1 37 21 30 00 1F 22 55 DB 91 1C DB E8 77 4A 22
 AE E3 03 91 93 E4 C9 F6 55 09 AB 61 98 C5 AC 15
 B0 95 2E CD 24 71 03 EA FE 4B 58 0A 8F 92 C0 43
 1D 59 5F AA BE 7F B7 03 6D B7 3A AB A8 7E 4E DA
 AA 64 17 53 A1 29 C4 16 0B D7 45 42 E6 FF 9A 27
 F8 34 FD 90 3A 00 F9 93 39 BD 8E AC 3A 40 C7 E0
 E4 D9 79 A6 3A A8 89 C9 F6 E5 55 CE 1C 8D F6 B5
 47 36 41 49 76 12 B8 B5 2B BE DC 6A A0 F8 AB CD
 DF 87 48 7A DB EA CB 4A
* End 691851895 2480056426