* LTspice Encrypted File
* 
* This encrypted file has been supplied by a 3rd
* party vendor that does not wish to publicize
* the technology used to implement this library.
* 
* Permission is granted to use this file for
* simulations but not to reverse engineer its
* contents.
* 
* Begin:
 EE 4E 41 62 76 3C 6F 19 BD 98 2D F3 6A F2 AE D2
 21 55 D6 DA BD 0B A7 C3 35 61 C3 34 EA 6B 12 96
 DD 8F 13 69 89 43 3C 38 BD 50 70 12 3F 39 97 5D
 09 E9 BA B5 F8 D3 DB 23 EF 43 7B 2C 2E EA A8 24
 58 D7 83 12 6F 94 E8 69 15 FE 19 E4 89 46 4A AD
 55 04 43 B9 3B 52 93 EA 36 14 7C 4C 6C 94 EB 57
 8B 33 97 0C 6F 90 96 36 9F E9 37 0E C4 9E 09 50
 E2 D8 3A 4C 63 97 86 26 6C D2 D1 B3 F2 F9 35 BC
 11 9C EB 4A 1C 7B 86 DD 24 5F 6E F7 00 97 13 13
 36 7C F9 7F 02 B6 C2 D2 48 5C D8 E0 DA 4E C6 62
 77 9D C5 45 ED 77 1F 7E 98 E6 E3 52 63 48 27 95
 A6 13 2D AE B6 CC 6F FB 4C 5A 67 3F FC 44 64 B7
 40 19 E3 B1 01 88 7C A3 71 18 D0 B0 C1 AE D2 41
 FD 61 4B 34 25 3B EF 5B FC 00 F4 F1 D0 DE 56 38
 14 D1 A0 1D 2F 69 38 05 D3 8B 05 82 B1 50 F8 A9
 75 77 32 E2 B4 36 3F A5 1E C7 D6 4F 3C D8 BA 9D
 7D 05 93 B5 BD 36 55 2C E5 7E 46 9C BB 37 B2 6D
 97 F4 D0 D9 5A A7 A5 B0 07 7C 49 F8 65 2F 1E 90
 1E 0B 74 1A 60 CD 92 70 A7 F1 DF E2 FB D9 AD 88
 78 07 D8 FC AE 31 EC FD 5B 6B 24 84 27 54 0C 02
 1C CE 3E 57 6D F2 86 50 18 72 A0 95 20 88 30 C6
 A6 6E FE C7 85 0A E0 09 32 44 B4 F8 2C 44 93 D2
 96 D5 1E 50 97 AE E7 16 D4 15 9A D7 3D 4D AF EC
 EB C5 35 21 E1 96 1B 73 DE A4 0F 1A 1C 68 A1 AC
 01 F0 6F E2 FE D8 E9 14 EF 91 AF 6B 5E 73 C9 49
 C6 91 83 74 5B 41 D2 26 F4 C7 91 A4 B3 B3 9C F5
 CB 50 A3 E2 03 43 5B 9D FA 75 34 04 18 BE 4B 72
 A2 F9 63 19 63 41 85 43 92 93 BB 25 A9 BE C4 8E
 C8 A6 D4 DD 19 BF C8 60 E7 4C 94 68 3C 81 A4 10
 74 FE 1E 81 6A EE 48 1B 8C 54 79 E7 EE 99 57 EE
 B9 A7 A5 76 75 24 E2 93 FE 9E 85 A9 F4 34 E2 B0
 45 DF BA E2 2D 62 93 16 AA E2 7E 0E 62 80 96 DB
 77 D6 BE D8 40 0C 57 74 B7 7E 92 FD 21 16 77 74
 5D 51 98 A2 A4 4B 39 FF 62 FD E4 96 A5 FF 1A 15
 CA 82 81 D9 D4 85 FC 93 45 5F 6A 71 1C 56 B5 27
 68 7D 3E AC 03 26 AC 22 C9 FD D2 18 9B 91 54 90
 44 AC 45 82 F0 FF AF 58 28 97 9E 17 F1 1D 47 2D
 7F D7 E5 74 3A 5E 79 B4 83 78 0A AF B7 21 EC D4
 DA 4C BA 41 B6 A8 E0 09 CA A2 FB FA 05 39 CC 59
 B3 B5 2F AB 40 FF 61 B9 8A F1 CB 36 BC 4C 4B AE
 4D E9 81 E5 F0 1B BC 6E 27 34 8D A7 5C F4 E4 9A
 C7 98 66 A1 DE 7A 76 E1 2C B2 08 EC EC F4 32 28
 56 4E 33 E9 C2 6E 9A 50 A2 2D D7 C0 B7 78 FA D1
 44 E2 71 CA 87 EA 8E 8D 22 C2 6F 23 0D AC 38 96
 42 B2 B2 B6 B3 D4 18 6C 2A 8A B2 F2 44 65 6D 70
 78 59 93 12 15 BF CF 91 9C 7E 70 4A 29 16 1E EA
 FD 25 8D FE 94 2F 5F ED 52 67 61 46 DF 6E BF 36
 B9 B9 13 C5 14 E2 4E 53 AA 01 9F D0 77 3A 96 DE
 71 D1 86 36 B9 69 3E 00 D2 73 AA 6F 20 16 C2 C7
 CD 1A A8 00 F9 DD 34 C7 CD EA 68 6D DA AC CF 3C
 FE B9 C4 07 6F EC 00 45 7A B6 12 DC 5F 03 1F BB
 78 0B 93 DB EF FD A9 4F A6 26 0E 11 8D 64 C6 A5
 A0 F1 EF CB 78 40 A3 8D DF AE 53 74 FE 73 23 E6
 01 EE F4 0A E3 EF F7 21 FF 2B 72 3C 8E C6 92 E4
 D1 01 74 E9 BA 66 40 79 C3 7E 42 11 80 CC 62 81
 F9 4E 86 B7 FB 29 48 F6 B1 58 D2 56 9D 46 5C 05
 96 5B 2E 15 87 25 1A E1 DF 48 BC 96 39 21 23 FF
 2A CD B4 1B C7 A6 D1 54 22 44 55 31 BB 81 D4 35
 70 EB BF 7A 58 A2 C8 A2 DC A1 2C E6 37 8B 15 BE
 63 1B F1 D3 37 44 60 08 28 D5 62 3C 5A 8D 22 91
 7F 41 75 51 DC F4 D0 DE 4F DA C2 0F 03 32 65 68
 82 B6 69 90 C3 AF F3 BC 35 FD D6 B9 47 02 01 23
 0C 72 52 78 E4 FF C4 7F 69 C6 F6 E7 6E 3D 62 F6
 3B 92 40 14 12 FC 47 F6 04 97 56 59 45 A3 42 D3
 BA D1 F6 9C 73 20 BB D6 AE 5C E4 1E AE 3F AA 33
 92 9C 04 BE 19 DE AD 48 58 09 C6 2A A9 37 7F CD
 83 AE 58 B7 0B 31 6F CA 0D 83 E6 6E BB 7E 6E DE
 B2 14 01 45 16 92 C8 D6 C5 55 51 1B 93 06 91 99
 BB DD F3 B1 43 58 CB 1C D1 E7 26 36 A2 F9 32 E8
 5F DC BC 41 BB EE 90 67 97 B8 10 F7 F0 12 32 01
 1E B7 14 F2 2D 6C D0 14 5C B4 16 A0 76 EE C9 E8
 E8 12 55 E0 CA 16 5C 5A 9D 80 41 9C 52 3A 60 FC
 74 E3 B6 A1 EB F8 9F BA 3E 56 A7 D1 C8 1D CA 45
 C2 80 5F 04 1B CB 69 14 B2 E9 9D D0 A3 8B A9 49
 34 78 FF 00 1C 1A 52 04 47 89 93 12 AA 43 67 6E
 E2 6F EA 7A CD FF AC 48 F9 65 EE 75 7C C5 D5 A1
 BF 22 3F A9 0B C6 BC E6 6B FD 46 66 11 E9 CA FA
 CB BA DD B9 7B F9 F8 EF 18 99 38 1D 31 A3 92 92
 61 39 41 74 BE 18 C4 DF 04 06 39 7A 39 81 A2 09
 77 6F 9C 22 98 53 C3 D7 53 E0 0C 90 D4 AF BC 34
 66 A8 F7 7D D7 6D E7 F3 CC 14 6B FD 81 AE 8E BF
 18 73 64 94 E7 44 53 59 2D A7 75 B4 19 96 74 39
 4E 8F 29 86 E4 39 FA A5 EE 9A C1 8F 68 71 99 77
 48 02 BB 5E E8 7A 68 26 E1 51 33 07 73 AE 09 AA
 DA 31 DF 8F 3E F4 7F B1 83 66 CC CE 2B 59 69 A2
 88 92 D1 91 2A F2 8C FD C8 43 8C 83 8F 1F 6A C5
 1C ED 06 5C 60 2A 4A 47 2B BC 9A 52 16 B5 DE B0
 5A 4F 0B D7 21 69 69 C7 A6 F4 73 C3 40 FC 47 71
 97 85 12 64 0C 15 89 0A C4 92 67 08 4F 8F 09 4E
 1A EB B6 AA 78 93 25 10 50 B8 30 14 1F F8 2E 6F
 71 C0 75 D0 E3 00 EE 4D 38 15 0B 06 52 48 7B 22
 FF A0 0C 79 2E FC 44 1D CE F0 63 71 14 3B 8D 3C
 CD 7C 5E EC 18 C0 0C E7 88 EA 19 07 94 2E 64 6F
 C7 E4 5D 43 A2 DF AF A1 FD 23 FE A3 B0 02 F0 B2
 7B E1 19 98 DA C4 06 A1 1A 87 72 62 C6 60 A8 68
 C1 C9 5B AA 0D 36 28 DA C5 B2 F9 27 ED 77 CC 53
 17 DA 8C 07 52 6B C3 0C 7F AA 73 06 5B 4F FB D6
 C6 6D A9 A3 D2 39 E6 4F B4 19 57 65 5D 3B 4A 79
 57 D2 AF 09 01 2B 83 35 94 3E AA 75 E4 56 64 BF
 7A 5A 85 33 27 06 30 C5 7D E8 00 7B 80 84 7C 6D
 24 9E 08 D2 F6 A7 6F 14 1E 1D 55 80 2A 20 21 C5
 47 75 4E E5 D7 79 29 9F A1 C5 F5 33 F4 3F D5 CA
 79 0F 83 33 03 6A E4 2B 71 81 07 BE C3 43 38 E2
 B7 C5 65 D8 64 18 CF 6E 77 F1 52 81 9E BB FD 73
 FA DA C1 13 AF 4F 37 9C F0 38 1A EB C3 25 79 1F
 DC EF 26 BE F8 22 23 C3 13 7E A9 52 B2 02 4B 13
 B2 65 32 76 1B 74 8A 7C 18 9A 62 C6 66 5C 69 45
 65 4C 69 10 8A D3 08 FE 28 50 85 62 22 5B 9C 3A
 F5 D2 58 0E 05 EF AC 3F 25 30 56 C1 42 6E FF 10
 3B 55 09 88 67 F9 90 BC A7 C0 D2 DC 3F 9A 58 1F
 83 49 E2 95 86 C0 4A 37 4C C9 BA B5 0B CC 94 D7
 FE E6 B7 B2 72 01 BC CA BE 1C 8E 58 BB F6 5E 95
 EA E9 70 7C 4D 85 26 FE 19 C0 3F 45 44 FE EF 1C
 22 DF B2 8A A4 27 82 15 E5 9D BE 90 58 2C CC CC
 66 22 58 E4 4D 27 08 A0 D0 80 D6 22 A5 52 7A F6
 5D 69 A6 7B 38 8A 0F EF 9C 47 9B ED 2E DD B6 69
 4E 90 2C F6 74 C2 82 3F 8E 68 2A 6C F5 8F 13 46
 CD C8 89 02 6B 9D A5 90 52 BA DF F7 8B FE 82 39
 FC 59 44 25 EC CD 05 AB 36 CD 0E 14 D4 7C AA BA
 09 1E CC EF 14 4E 5C 54 54 57 25 63 70 ED 8C C2
 ED 33 41 7C 19 1F 5E 76 2A 1D C5 BF 0C A6 97 C9
 05 1E C4 59 51 CF F3 F6 B4 AF B1 28 FC 05 96 DB
 71 40 E3 4F 02 44 8B C6 B5 A2 DE 91 04 5F EE DC
 FC 95 64 9A 31 C2 D8 1E 0F D2 61 CA DC 97 75 2B
 E9 22 A8 15 B2 B6 BF 37 91 F5 9C 2E 55 30 F1 14
 1F AC 9A E3 AF 80 A9 4B C6 C4 ED 15 80 31 74 10
 13 73 00 40 59 06 4A CF A9 4F 8B A2 13 6A 7F A5
 DA 34 AF A2 CD 31 B9 72 B9 FA 85 14 A6 B2 E1 13
 AF 36 34 49 50 C9 0C B3 81 08 77 09 B4 57 B5 2A
 F5 2B F5 84 61 5F 42 BC 91 D4 27 29 AE 84 E4 F6
 3D A1 6B B4 90 98 66 96 1C BA C8 D1 DC 44 CA 1B
 7B 8F F1 1F 6F B9 39 7E BB B8 D1 F2 69 C0 69 96
 AB 6D E5 15 87 80 7A D5 E0 3A 76 2C 8C A5 C3 88
 DA F4 01 BE 0C 40 5A C9 09 FE DB F5 33 5E 6F 93
 E1 E7 EA 44 AA 76 3F 1E 77 4A FF 7D 0F 2D 3B 02
 75 68 D0 51 A4 8F D5 29 04 25 D2 BD B3 30 03 89
 E1 32 EE 59 73 22 EB BD 17 09 A2 72 93 1E C4 D0
 E1 B9 5F F1 B8 5E 41 89 A1 F1 E2 D5 A4 A7 48 46
 99 29 38 4A 0B 0F F3 6F 73 B4 F1 A1 6C 30 8B 41
 39 43 47 A9 5B F7 8B 43 39 4A 70 1D 33 3D 41 2E
 54 A7 D4 97 55 3E 20 F1 DD FA EF A9 CF 14 3E 61
 CE C8 D4 A1 17 9E 9D E5 9C 34 5C 8E 02 89 F3 1A
 9C 52 E0 61 B8 D9 E1 67 62 82 C5 7A B1 9F F7 FE
 12 73 A7 B1 34 39 12 F5 D2 F5 5B BD 42 06 A1 F7
 D1 6F DB 52 C7 9B CB DC E3 5B 19 36 4D C7 C3 52
 64 5E DC C6 7F 3F C7 F1 42 72 E4 79 75 A1 BC 33
 7B 92 76 7A FA 06 96 79 8B F2 0E 27 9A 62 CE 9D
 21 E7 BB 25 16 9B 96 18 2E 4F E8 9F 18 F9 B1 4B
 79 F7 A7 1C E9 84 8E A7 7D 0A C3 44 3F 6D 9E BF
 EF 4C 7A 0F 90 5A F0 18 07 2D 33 29 A9 A5 3F F9
 55 A5 CE D4 31 9F 57 2D B1 B0 FA 9E 0C D3 46 8D
 06 71 CF FF 63 FD 45 18 0E A8 36 27 11 A6 75 EF
 2A E2 98 FB EA 90 7E B8 D0 83 81 B4 62 6F A0 12
 8C 5A 3D 1C 2E D3 61 0A 66 9E E1 14 90 BA 1D 5D
 E6 7D 3A C2 0B 4B 77 4D 48 AD 8D BA 7D 2C 28 9E
 2D EC 8D B4 D5 42 6D C6 FC 34 C3 8A 5D 88 99 82
 37 C7 A7 AF 54 AD 6E 61 D4 D3 D3 70 BC D6 66 0B
 7F 72 2A 0E 99 DA B5 9F 15 6C 2A 79 CD 0D C7 D2
 BF 0A 7B AB 77 BB F7 42 38 96 14 BB 7B A1 73 31
* End 2116175429 511288502