* LTspice Encrypted File
* 
* This encrypted file has been supplied by a 3rd
* party vendor that does not wish to publicize
* the technology used to implement this library.
* 
* Permission is granted to use this file for
* simulations but not to reverse engineer its
* contents.
* 
* Begin:
 C6 2D 03 97 A1 E9 83 18 70 A3 95 CF 59 AE 72 A3
 0C DA E1 F3 D3 D9 91 66 29 C7 F4 03 6E 03 FB 47
 29 D6 29 AC A1 6A 33 7F DA 2D 7D 81 8A A7 DD 96
 9D DD B3 E1 08 8A 04 3A AF D5 DD 1D 7D 8D 72 A1
 4D D1 29 7F 65 8A 0C 92 66 13 41 90 BA 0F 2A 76
 81 1D D6 95 5E EB B9 4B 3C C7 E6 B8 B9 32 AD 6C
 B5 A6 D3 7D 80 A0 CF C7 35 82 5C F7 73 53 88 4C
 E6 E8 1C 1C 73 F5 95 29 28 25 65 F1 C3 FD EA 0F
 40 3F EE 36 53 32 73 DC BB 0E CA A3 0B 6B 65 56
 C3 B5 FE 6F B8 46 09 68 5B 95 25 71 4C D8 8F 47
 ED BC E4 EC 96 0B 93 91 E6 8D C9 69 99 DA D3 E9
 AC 2F 63 D0 5E 71 F5 70 FE 12 2A 9E 37 52 B9 24
 05 EE 87 78 6E 9F 5F 8A 94 87 2B 91 F4 16 8A 85
 C2 25 E8 F4 0B FA C9 9D 21 71 67 DC A4 A5 F6 39
 F2 8A A3 D3 48 0A C0 6C 59 CF 34 24 B9 7C 02 96
 31 F5 B0 AD BD 74 30 07 D7 10 98 E7 15 63 0F D8
 88 F3 01 47 08 08 3B 4C 4D C5 BB D4 CC 3D D5 39
 EB D0 6D 34 DC A4 13 BC DF 4C 1D BD EE 4E 54 0A
 25 32 7F E0 62 4D AD 38 68 CF 71 8B 8F 01 27 14
 BA E4 00 F4 B3 12 66 89 C8 64 24 51 56 8C 8F 23
 1C E0 E4 A2 8E 43 D0 C0 2A E8 29 E2 7F 50 72 72
 5A D9 82 12 18 9E 78 4D 1E 57 8D 82 55 80 10 2F
 5F 3F 85 E7 EF 39 DA F0 AF AB 21 15 4A BA 43 1A
 F9 71 A9 8C 1B 25 DE 7F 27 0E A3 B7 56 5B BD 4F
 6B C0 14 8C B4 88 35 1C 0B 55 A2 EE D9 12 6E AC
 E8 E4 4D 41 A0 2F D6 5C A2 AD 70 F8 67 82 2A 07
 40 27 42 66 86 5A E5 83 F4 A5 92 E6 94 EF 09 70
 79 37 5C E7 AB 01 84 20 68 91 5F 91 58 1D 87 DC
 0E 01 C6 FA CD 55 B7 01 1B E4 33 CB F4 58 EB 6F
 D6 B6 EE FD AA 99 13 E9 F4 30 6C 11 9D 7D 9D 2D
 60 1B F9 1E A5 1E 2E 50 BC FB 25 8D C0 C7 78 FA
 F0 FC AC BA 96 2C AE 24 84 7D 00 10 4F 37 56 C3
 8D 4E 45 41 6C AC 2E 17 A8 DF 6A D4 25 B7 11 2F
 C5 92 57 6C 8A FB 38 ED C5 53 B5 DB 03 E5 F3 19
 0C CA 14 28 5F 4C 6E AC 00 91 F2 D1 36 5E 21 00
 C5 3B 48 2C DF 8A 9F DF 1C 9F 1B 9D A1 85 47 3E
 AD F5 12 17 7C 71 7C FC F0 AD 62 78 2A 24 6E AE
 0E D3 DF 6E A6 1E 5F FF 42 6F A7 59 B5 FE 0D 6A
 79 D8 A0 39 59 80 7B FB 4C 8C 4C 76 2F 9D 6D 53
 F2 0A 5B 37 F1 70 ED 38 E7 72 84 44 40 41 48 09
 B6 A0 B3 32 2D D4 FC E7 39 96 BD D0 B6 C0 DC B8
 5C 1B DD 5F 19 F0 A0 ED 2C 08 38 7F AA F7 1F AA
 37 8E 11 A9 38 E0 6D 4F 54 C2 C9 71 96 5D 82 36
 A7 65 AC B5 96 8E 21 7A B9 E0 11 CD 10 02 79 C5
 47 C8 CB 79 25 AA 87 A3 D7 0D 16 D4 97 C2 04 A1
 7B B1 59 AA 4E 29 13 AE 35 5D 7C 80 A2 3F CA 95
 30 BA 09 08 D8 FD F4 DC 6E 6D D9 B2 89 89 03 22
 45 9C 26 17 26 5B 4A CC 49 BB 85 4B CD CD A9 5C
 84 26 22 D3 CB 7B 3C 24 A2 EF AA 88 03 8A F7 3E
 82 EF 70 5A 40 3C 4C 28 3F 25 44 6B E1 0D 71 1E
 C7 C4 94 D4 76 0D D8 67 97 2D 06 DA 9F 3B 80 CF
 A8 02 A8 7F AA 30 EC 74 44 CD 07 89 AB AF 60 7E
 6F 10 B9 CD 34 A3 67 7E 73 BC D5 0C 95 ED 84 FF
 41 19 BA DD 8F 0F 25 D8 CB 64 00 FD 91 B0 85 CA
 66 03 B1 19 56 5B EA B5 F7 A5 57 10 3D 06 D0 A8
 89 0F 4A ED 98 FF FE F7 C6 9F 98 CE C0 00 83 E6
 8A 60 07 AC 3C 34 F5 6C 48 C0 57 3C 0A C9 17 74
 03 A9 87 E7 1B 28 EC 40 3A 8F 9E 75 AE 56 D0 2B
 90 29 CF 26 7B 64 7D 91 18 0B E5 25 49 97 8F A9
 8A AD 64 52 D7 F0 FC 69 08 07 0C A2 7C B2 21 A2
 E4 54 C7 A1 59 0D E8 9A 3E 22 7E 7C B0 C8 1F 91
 B4 F4 D3 3A 5F C3 FE 4D AA 26 18 06 C8 6A 55 4D
 70 FB 03 15 9E 4A E2 19 45 91 DD AA 4F CD 19 FF
 E2 25 45 08 32 58 E2 03 48 09 A1 44 2E 3A F8 B2
 44 1D E6 0C E8 CF 79 E5 9C 1F 99 EB 52 AD 6E 01
 80 08 BA F2 2A 9E A4 1E F0 3F 45 F1 6F 2F A8 5C
 F8 7E 1A C4 72 B6 C7 C0 A9 76 26 E7 2F 80 BE BA
 F3 25 5E AB 68 96 62 71 0E 82 DB 84 FC 97 02 8B
 30 B9 17 72 BD CC 41 B0 09 82 EB 0F 53 02 70 83
 AD C5 3E 48 0A 20 95 08 BB 50 D6 70 23 7D 8D B2
 62 0A 6A FF EA 30 DD E1 74 C7 66 B9 3D 2F 6C D4
 0D 6A FC 4C E1 5A 91 FC BA 28 7B 1C 7C BF EA 7C
 40 73 EE 85 FA 59 35 D5 82 62 5A A6 54 E4 CE F1
 2A D2 F3 20 97 CB 9E 8B A5 9A 0B 52 35 69 CB C3
 54 BF FC 94 A1 84 C5 A0 B3 B1 3F 82 73 B7 C2 2B
 1F E5 45 42 B2 A8 BE 5C B7 97 56 97 05 F3 1C E7
 F2 F0 67 8C E2 F2 EA AA A7 56 8E F3 05 0C D8 7F
 FB 06 4D 3A 1E 1A BE 7B 4D 30 CF A9 36 E1 3E E1
 98 35 68 9B A3 A8 66 24 C9 1F 1E 06 D0 11 1A A4
 FA 55 3A 46 1C C6 16 31 B3 D4 7B 34 0C 85 1D 1C
 0C F7 B1 00 0A E2 A8 19 6D 4A 41 48 49 CF FB 35
 B7 67 F3 18 FC 1D 9D 48 50 15 CA AB B8 5B CF EC
 06 FB BA BF FF DA 09 D8 A0 DC 79 99 F4 C4 0A 53
 66 C9 7F D6 A5 26 F9 4A 77 59 1C 72 9F 41 C6 F3
 44 80 67 7C BD 31 37 10 93 B0 D4 DB 58 16 BD 98
 0E F0 23 2D 0D B9 88 70 55 09 12 A9 B3 81 56 9B
 B7 6B 53 ED 88 C7 B7 FA 44 92 0B 1F 6D 93 70 E4
 E2 27 C6 47 EC 94 14 F7 04 B5 47 95 CE 20 7B BF
 CA F5 4D 71 EC 50 CC C7 E4 80 7A 1D 6E 19 2A ED
 11 6B 1B 2D 73 70 AA 2F FE 9E 74 31 C1 1A C6 78
 11 7B 68 52 3F 9A 46 03 5F FF 7D 25 D8 67 DA C5
 A6 EE A5 FB 60 B9 38 74 55 E4 D4 8B 33 56 6E B9
 0C 30 56 C2 38 3B 98 23 62 49 FB 2A C6 64 3C 86
 88 B4 ED E4 B0 E2 63 12 5E 49 C4 0A 52 DC 98 1D
 D2 02 A5 05 3B 60 2B A9 89 C3 91 6E D9 33 3D 9F
 4C 85 F2 AF 18 E1 B0 EC 11 E7 5B 52 CB D9 F5 25
 E8 B3 72 FE FC 69 1C 88 D0 25 1B 1B D4 93 C0 9B
 68 52 25 33 FD 83 CD 7A 03 ED 5F 8D 24 92 B3 C4
 CB 51 96 12 81 D1 E6 A1 FF 02 A9 3A CD A1 E3 44
 7D 04 3E 49 08 61 C8 F8 A6 D5 31 0D CC 8D CB 54
 BF E1 0F 02 22 26 73 D6 BE 9D A1 FD C4 7D 93 CE
 6E E5 19 BA 58 C6 F4 09 26 9C 5D 1D 19 30 64 31
 AD 0E B8 DF 10 A8 2E E3 C8 48 AA 44 4D 16 7B AB
 80 86 F5 D4 D0 20 D0 60 83 06 04 55 F0 35 15 F5
 EB DF 68 DB 82 E3 7F 0C 02 E9 AA 64 7A 08 46 8E
 BA 8F 6A EA 88 DB 99 20 57 38 E1 C2 53 32 FF 7F
 D8 E3 FC 82 EF D7 14 9A 60 30 6A 58 69 77 C0 9C
 48 AC 1C CF C6 57 24 9B 57 26 51 70 A8 6F DC 1B
 42 67 65 EC 25 C4 B6 3C AE 0F CE CD EF 02 68 9D
 2E DB F7 FC 3F F0 E2 A5 49 20 09 F7 3E E8 8A 3C
 2A A8 2D 1A 7A 67 54 61 8E 85 DC E0 76 67 44 8D
 45 90 DF BA E8 E2 DD F4 AB A7 C3 2A E0 AB E0 A8
 20 A6 DF 72 FD EE AF 33 48 AF 7F 94 C0 BF 79 20
 A6 86 83 82 75 FD B8 D6 EA 2B 8A B9 FE 95 C5 6F
 FF 44 BE BC 6A 7A 3E DB A1 71 73 D4 D7 F8 01 4E
 2F 8C 37 59 BE 6E 5C 03 A5 19 5B 39 C2 61 5C D8
 0A B1 A0 1D D5 34 C2 95 2F A9 C7 44 9B F9 CF 83
 99 A0 EB 9E 84 DA B3 8C 6F CE E0 4D 34 64 C5 E5
 6A D4 F8 26 37 42 96 64 06 E4 B7 E9 C5 3E A0 FC
 6F 34 EC F9 C9 66 67 D0 E8 3D A2 27 6C E8 8C 11
 7A 3B C6 EC 8C 5F BC 7C A6 B2 A5 F6 1C 36 BC 58
 8A 0D F3 BF 7A B9 C6 9B FC 53 65 D2 99 47 1F AF
 64 09 C5 B1 5D DA 02 5A 38 13 86 E5 26 12 B8 CE
 E9 38 87 52 D2 BC 54 FC 7F 6E 1F AA BD 29 F7 46
 8C C1 56 4D 26 E6 5C E2 8B 94 B8 CF 2E 1D CF 44
 EA 38 64 63 76 AA 70 77 22 35 32 BD B0 89 97 BA
 50 EC D2 F1 83 31 40 87 75 2B B5 6B DD 6F D4 70
 54 1F 90 CF 34 BD 30 D1 A2 DC 12 78 78 AB 14 5F
 8E C5 CB 40 8C 00 08 34 F8 DA 69 22 E3 CC 04 CB
 78 C1 A4 52 CF 59 60 27 94 AF 38 9B 51 9C F2 D1
 2D 33 B8 60 C1 25 5B BD B6 24 72 A3 11 8F 61 C3
 48 03 1D 6A DE EA 98 7B 5D DC 4B 70 67 F9 43 04
 4E 7D AE 67 6C 0B 47 FB B9 03 0B E3 01 44 19 E8
 F7 D6 A8 76 D1 22 2C CC 3F 96 B9 A2 96 20 77 33
 ED 2B DE 56 83 AA 26 46 BC 31 6D B0 C7 99 56 71
 5F EC 4C EE 6D 55 EF 99 6F 95 07 E0 D9 B2 3E F6
 7E 42 3B 06 DE 47 FD 6C D1 89 B2 F5 70 9B E1 23
 1D F2 12 5F 8E C8 76 92 61 86 2A 88 B5 D7 E3 BB
 AA 59 79 EE 05 0D 59 03 2B 74 F6 61 6C 5A 9F A1
 14 21 A3 AD D2 63 33 3F 89 7A AE 9B 08 A6 D2 8C
 1D D8 83 E4 B3 02 AB 04 8F 98 11 70 69 EB 91 C9
 01 3F 5F 71 B5 1A BA 9E 8F 5A 5E DA B7 67 DF ED
 4C 77 AA 21 2E 10 8C 1A B5 10 65 8E 5D 57 C0 99
 44 76 44 CE 8F 36 CB 31 4C FA 8D 93 1B 18 45 B2
 97 F9 36 D0 83 A3 93 4F 34 48 97 E1 F0 C4 8F D2
 D5 82 DE EA E6 0F 79 26 E9 35 1E 56 AE DA B6 16
 D1 4E 73 93 10 02 56 D7 FD CD 1A E3 3F F7 68 F7
 42 A5 D9 C4 9F 6C 77 09 F5 8A 4E C0 CE 45 0C A2
 09 F0 48 64 28 A9 A6 8C 6F C0 FE 1C 93 51 42 04
 5D 95 C5 D2 46 4E D7 7C 8C CA 25 46 2F D8 B2 F0
 CE 56 0E E6 00 3A BD 7F 67 65 78 5F C0 B0 9D 3A
 22 71 D3 BD BF 04 E3 63 F3 F2 7A 58 FF 88 28 07
 14 CE 3B 94 4C 39 49 ED 11 EA FB 49 F7 81 B4 4D
 02 16 96 D8 81 F7 FC 64 CE C2 4D 24 9C AB 93 FE
 12 EC 4F AB F5 4D D7 24 F9 9A 39 BA FA B9 D0 29
 40 21 23 FD DE 98 B4 27 F4 80 DB 87 B3 3C F3 AF
 59 A8 C3 54 DF 62 0A 4C 12 F0 1D 8F F7 7A 73 92
 11 E8 21 DD CE 1F 0A 29 72 DB 13 2E 81 92 EB E0
 C9 E3 2D D9 0C D5 2E B5
* End 3566785070 184579958