* LTspice Encrypted File
* 
* This encrypted file has been supplied by a 3rd
* party vendor that does not wish to publicize
* the technology used to implement this library.
* 
* Permission is granted to use this file for
* simulations but not to reverse engineer its
* contents.
* 
* Begin:
 32 D8 62 A6 8C 27 CF A1 54 1A 10 6B 85 E6 50 39
 33 75 91 81 60 96 53 3D D0 7F 97 A4 20 6F 4E 75
 44 ED 2A 74 31 EA 65 F5 8C B7 4E AB 25 6F 5D 8E
 1C 83 C3 9C 3B 02 B2 B8 14 F2 E1 D0 7E 31 59 8B
 8B BC A7 D4 5C 4E 60 4D 79 E3 36 5F 76 01 7D 8F
 A6 73 7F 4B AA 22 42 BB A9 C2 D0 F5 3E E9 E0 4B
 1B F0 51 7D 9A 20 0E AF 99 30 A6 C7 49 4D 12 EE
 25 69 1A D9 E2 F6 12 80 09 00 D4 90 CD 06 0C 5D
 95 B3 9A 73 6B 11 A8 C2 6F EF 41 67 90 C4 51 61
 F8 F9 8F 79 ED E6 5A CC C1 1B 88 6F 1B 32 7F 4C
 C8 11 70 33 AF 3A B1 03 19 9B DB C7 C2 70 F7 ED
 71 52 F9 AF B4 C3 53 CE 9B 8A BB 57 65 56 5A CC
 3B 46 85 ED 46 B2 88 36 54 95 8C A4 60 3D E8 12
 FE BE 82 52 A9 4A 68 F7 32 00 E4 A5 61 D0 B2 1A
 76 FE 63 9A AF 01 DF AF C3 4B D9 6F 7F 61 03 72
 D3 52 48 F3 0B 99 F0 B6 51 29 2E CE 5A 09 FE 3A
 C3 B4 AD 08 AC 64 7A 0D 99 1B AA 17 BF 04 20 F3
 B3 33 34 C1 88 D7 ED 11 8F 29 C1 A1 64 32 97 69
 DB 91 C4 84 DB 6B FE 61 82 EB 0C E1 59 34 59 40
 72 EF 81 09 3D B7 A0 6B 31 71 C9 80 E7 89 E1 52
 E8 60 E1 47 F6 9A 67 A7 74 6C 63 75 A0 0C B0 C1
 4D 03 FE 1F 89 29 EB 43 61 D5 E3 9D C5 D5 EB C0
 25 99 FB 43 94 73 B9 F5 E9 FA 6F EE 2D 61 95 D1
 13 6A 41 D7 7F A7 70 E2 75 2D D2 DD 71 D6 4C 2C
 ED DB B1 F8 E0 4A D9 B1 66 29 F0 6A BE 7E B6 DB
 09 40 13 43 28 EB 99 1E FC 17 3C C6 A1 AE 8B 98
 1A 1D 5F 5D F5 E0 CB 3E 7B B2 C2 BE C2 25 0D A2
 40 01 B0 D9 BC CD 39 17 24 93 3D 90 C8 30 01 5C
 BB A2 18 CE B6 06 E1 8F 06 C6 7E 28 61 26 30 7B
 62 D0 4F 7F 83 D6 A0 11 39 74 71 C5 D6 DF B9 6E
 47 76 96 86 B0 56 A6 9C DA 33 5B 5D C4 9C EE C5
 54 1B 5B 26 6A D2 7E A9 B9 3F 4B CF 21 C2 80 CA
 5F D8 55 9E 6E 69 7E 3B 25 9D 04 80 5A 51 1A 14
 44 49 7E 50 14 00 8B 0B 04 D6 02 77 EF 05 1B 9C
 FF BE 68 04 C3 58 56 54 D3 B2 1E 69 99 A6 AB 38
 33 9A 05 44 31 59 17 B6 B3 18 9D C7 D9 B2 6D 37
 B6 A8 C2 B2 6B E9 D7 D7 A8 76 54 DC 8A 75 04 CA
 04 06 EB E9 43 E6 06 31 FA 6B 3A 4E 9B F2 D4 7D
 8C 60 3B E4 3C 4D F0 A6 23 20 82 E2 A7 43 58 40
 50 D0 67 2C 12 E3 40 76 AB E8 67 85 39 F2 D7 FE
 54 B6 53 ED A7 13 9E 81 02 65 E3 5E 2F 28 6A 44
 0E B9 CA 89 E9 D1 53 7A 90 4C ED 4B 72 21 90 19
 69 7F 83 05 99 83 AE EA BF E2 5E 17 FC A8 63 ED
 C9 DF A8 A5 6A 15 41 0C 1E 69 FE DF EE 57 59 2F
 70 0B C5 1A CA 59 CC E3 51 2D B4 31 73 35 60 5E
 F0 00 27 50 E6 41 C9 75 1C 5F 9B 00 1F 7B F2 51
 C6 7A 98 FE 85 9A 12 20 E0 59 44 82 BF 72 53 BC
 3F 12 46 08 03 34 60 2C D9 EF 4B D3 66 B5 A5 3D
 73 3A 5C 6C 32 0F 83 64 D1 B1 73 B1 45 B5 A3 49
 A7 6D 1C 0D D8 F8 A0 B9 86 12 3D 17 C6 12 D9 F8
 B6 31 17 AC 30 B0 F3 85 FA 56 B8 62 FA 85 F9 1E
 69 37 1D 9B 10 EA 3A 2A 3B 37 69 06 84 BF C4 6E
 1C 27 AB A4 3E DA 68 5B A1 5F A0 CB 76 D7 1D 1F
 3B DF 9D E5 96 B7 26 AB 9D 29 06 E7 01 92 A8 D0
 8B 7B C9 33 CE 66 83 20 7D 75 AE D8 AB 5A D7 C5
 88 96 30 69 03 09 7A 16 14 86 AE A7 A5 71 6C 17
 89 0E 25 05 46 87 2A AB FF 09 71 05 62 78 0B 04
 4B 9E E7 D6 13 73 1B 90 1C 29 19 22 F5 68 D6 2C
 48 DB A3 DF 3A 00 26 14 2F 96 56 E9 F6 6F A2 2C
 87 D4 FA 03 12 85 4C 64 0C E1 A2 A5 AF 6F B0 CA
 9C E6 AC 7A 26 A8 0C E6 49 10 6C 50 D1 1C 27 8F
 07 EA 22 7F 35 43 DE 9C 1E 9B 5D 15 8A CC 74 B7
 51 02 5F B3 19 57 9D 5A EB 9C 08 2E BD 88 2E F0
 99 73 1F DE CC 44 B9 92 91 08 13 03 9A F7 9D 05
 D9 FF BC 1C B8 6F 2B D9 5C D7 A5 E7 81 1B 60 B7
 AC B4 EC 1C 2D D0 FD 35 76 3E F3 A8 71 1C 12 85
 1B 44 6C 50 DC EF EC 53 68 46 75 5E 85 A1 76 AB
 93 70 4B 94 5B CE 2A 68 B4 7A 28 06 97 03 36 37
 2F A9 FA 35 18 23 B6 66 DC F7 28 61 73 4E DD B1
 03 D6 AB 80 D0 6B F1 A9 8E B3 7B 7A 2D 11 4E 07
 9F 74 D7 F2 81 C7 65 58 54 6B 00 5C A3 95 BA 21
 76 E4 84 1C D9 4E 2F D9 7A 8F 63 EE 31 D8 A8 14
 2E 12 13 67 A8 CF E5 96 1F 09 49 D1 17 F9 45 5C
 BC 25 8E D7 8D DF 57 21 FD 89 3C 85 F6 F4 93 8B
 12 F2 4B 87 E9 AD CB BE 46 0F 2E 1B A5 37 83 08
 B9 D0 4D D1 D3 6A E3 81 D7 62 23 57 96 6C 9C A3
 AF 1E BF 1A A1 DC BA 3D 1D 5E 75 62 44 5D D6 B0
 F1 9B B2 7F C8 19 B4 BF 69 5F 1C 00 70 DF E9 3C
 5F 2D 42 6F E5 4B 6B 83 37 AD 12 90 0E BD 7B CD
 AC 64 E8 F9 BA 58 6B 89 32 0C 07 8A BC A3 E9 7D
 88 08 A5 5B E9 0F D8 1C B2 F5 FE 99 A4 15 D3 0D
 20 C6 CB B4 32 CF AC F1 00 43 DE 45 60 6D 5B C4
 50 97 20 2A 6D A2 D7 93 9D 75 D4 BC CC 64 19 E8
 08 96 16 0D 01 FA 17 0B 6A 3D 6E E6 8D 9A D6 9B
 04 2A 17 C2 1A 41 9B 76 70 67 C4 06 DA 9E 3E 95
 BF D4 76 BF 45 35 87 E3 C7 73 D2 98 AD D8 2C 41
 09 EC 99 57 56 75 A0 67 24 9F 3C 96 C0 85 D0 53
 04 45 96 8D 87 2A AA D1 A0 61 B0 1B 0D 40 6A 12
 97 A7 09 BA 63 D9 77 81 66 B6 8F 2D B1 BC 65 13
 7F 77 26 59 54 56 53 1E 2A 88 39 C6 7D 6E 29 6D
 8B 96 A9 3D FC 49 4D 36 7B 56 97 AC 9C 3B 0E 24
 15 2A BF 71 3C 70 8A CA 23 B5 73 90 FF 48 35 19
 F6 A7 EA FB 4C DD 88 D3 49 26 25 6D FE 4B 08 A7
 6B 41 75 91 19 B6 C3 DF 90 12 CE 1F 9E F2 99 6F
 19 3E 73 52 BA 25 53 4E FB 12 2B A1 D3 5B EF 66
 93 34 85 4A B6 B5 06 22 87 23 D6 DE 99 85 DA 0A
 24 4B E6 7D E9 55 3E 74 B1 09 2B 13 CF 37 C5 BB
 57 84 BE 96 AF 64 F3 E5 EF 85 A5 3D 8C 20 22 7C
 8C 4D 83 25 77 53 D4 19 38 18 D0 A2 46 A5 20 6B
 27 F9 1C 5A 11 6A C7 44 F9 D1 F8 79 12 1B 96 25
 49 93 7C AD 3B EA C7 E8 46 E1 71 F2 89 F7 7B F0
 C7 F3 2E DC 6D 9D 53 2C AB C2 F0 C4 20 A2 52 BB
 7F 45 85 30 6A E2 68 AE 47 85 7C DD 1B EC 02 5C
 30 7A 68 FE 23 C6 97 73 1E A9 DF D4 E2 81 F8 DA
 1E C4 46 A6 F4 B3 58 EF 45 92 27 8F 9E F0 E5 36
 A3 24 43 BA 88 30 8B B3 D6 22 74 4C 40 B5 CE 35
 16 F5 8D A0 82 AB 4A 26 99 B4 29 76 8E 03 A6 07
 A2 C1 E8 67 A3 CB 87 49 E3 46 BD 1E 1D 81 5F A4
 B0 54 F0 BB EA 14 29 87 55 0A 7F 2D 42 64 FD 6B
 E6 B1 64 EB C5 38 08 DB 1C B2 04 82 00 42 3F 96
 68 E9 4F 2E A1 36 03 8C E1 4B 55 BE 1E BD 72 1D
 98 DD FD E1 30 38 F5 15 65 D0 B3 DF 9B CD C4 3F
 B1 01 46 1E 4F AD E3 6B 94 7A C2 99 15 61 BD AB
 B0 94 31 77 E3 B9 17 2C 5D 63 C9 26 AD 11 69 66
 7D 6E 26 A6 55 3D C9 E2 2A 8E 15 39 71 F2 57 50
 9D 43 74 19 BA 8E 92 B0 71 17 02 FB 7B F4 8B EA
 B2 92 27 20 73 32 2A 6D 2F CF 6D 29 0D BF AB 12
 A4 38 E0 4B E6 8D 98 FC 76 CB 2E 40 96 23 7A 5C
 8B FD E6 08 C1 B6 3B C2 B8 52 30 A9 90 33 69 30
 AB 6C 80 FD 61 CB 77 B7 80 5D 3B CA AD 83 2D B7
 C7 D8 72 DF 7D FC 49 C1 26 54 23 24 45 5A 2C 8B
 50 92 6E 69 D7 55 03 AF 8A DA 71 0A 1A 8A 48 C1
 88 D2 2F 2E 5B FF 9E 6C A1 54 00 92 5A 54 22 42
 22 91 B0 C6 8E FA 1F 99 04 4C 61 57 0A FC D6 3A
 92 EF C2 0A 97 15 BB 1D 9A DA F8 BE 36 17 99 83
 52 9A 20 9B 64 5D 83 12 A3 8A EC A2 18 CD 91 E1
 0B 8C 55 86 FE 15 F8 EB 64 17 C8 05 EC 14 DD A7
 EA 61 4D 31 DB B2 3F D2 2F 45 58 C9 74 0F 50 E7
 A1 C1 24 8C 37 63 DE 71 BD D2 97 25 4C 83 BC A2
 5E BF 4D CD 75 0C 78 1F AC 60 CB 3F 92 3A F8 06
 4C 30 B8 0B 68 62 9C 53 FC D3 3F EE 59 0D 16 5B
 52 DC B7 62 17 56 79 E3 92 D4 6D 1F 48 B0 22 A4
 A0 9C E5 09 2A C8 5F 1D 04 CE 81 31 2E B1 16 24
 23 2E CA 38 A9 72 21 D6 EF F7 29 71 53 6A C6 39
 21 80 11 DD 3D CA 9C 07 FD C7 5F 47 56 EC 02 93
 B7 24 AB 24 35 D9 AA 0A A4 0A 9B 74 7B 59 09 54
 34 78 7A 3F DD 1B 93 0F E3 8B E0 E2 99 D2 72 BB
 32 67 A4 8D 0F 12 C4 C2 CB E2 9F 2A A4 D8 8E 9A
 F9 40 8B 88 69 C4 BB 46 7B B4 6D 43 0F 63 48 E7
 70 AB 3B 2D D4 B2 15 8F FB E7 DE 4B CA 20 01 FF
 C1 46 01 C8 16 8F EA B5 1A 1B 3F E5 90 28 D7 4B
 A9 71 18 6E 72 D2 8E BB 3B 08 A0 EC FF 10 58 41
 3D AF E6 CC 96 C5 E9 7D 66 58 02 4B A4 00 2B 57
 5D 8A 70 B5 57 54 25 5A 65 68 4F B4 CD 29 CC FA
 45 61 27 16 A0 EC 63 47 E6 FC 48 29 E5 2F 8D C0
 C5 4D E9 FE 9D CB D5 40 1E D8 B2 31 82 76 EC 9F
 5F 39 F0 01 A0 8E 8E 20 AF 7A E8 D7 D9 5B 8A F0
 FA 81 E4 46 39 0F 31 98 5A A5 64 52 BF 95 6F B1
 89 5F 0D B8 46 94 A9 54 69 71 58 9D 98 72 84 F1
 1A 48 FD 85 94 FD 34 21 5A 34 83 97 65 74 06 10
 77 F9 B0 B3 83 2D 29 EE 7D C7 BF 29 A0 40 6B 96
 5F 06 92 D3 66 5B 7E 22 85 B4 5F 59 EF 8C 91 E2
 AD F5 EF 62 8C 79 A0 35 F0 70 D2 05 73 7D 47 6C
 8A 4D CF 06 1A 05 F2 CE 4F B0 1F 1D 23 68 D1 A6
 8A 83 BD E4 06 BE C5 2A 67 9C 99 DE 00 44 34 65
 DB 01 FC BC 0E D8 B6 C6 EE 06 1D D0 71 F1 B7 6C
 AF B8 EA D0 1E 35 EE A3 C1 D3 27 87 7C 92 BA FB
 94 2F 10 43 AF 94 13 73 2D C1 6B EA 51 60 FF DE
 2D CE 7A 6A 92 DD D3 12 DD B7 6C 89 D9 12 07 A0
 D5 D6 1C C6 89 69 BE 69 DD 62 67 7E A3 7D A3 63
 CA E3 34 E1 ED ED 4D 23 C4 EA 36 89 AC D3 73 09
 BE 58 77 04 86 2C A6 E8 C5 B7 BB AA 88 47 06 18
 4A CF A3 86 9A CA B0 82 3E 46 D9 A5 17 50 D1 D4
 D9 0E C0 DB A3 AC A7 25 C0 AB 4E A7 E5 8D 9C A7
 C7 5D AE 83 06 32 BA 3C AA E2 46 38 B8 E4 4F 3F
 0C E7 52 64 BE B1 AD B3 25 6B 53 99 06 2C 57 27
 98 E5 4C 81 E3 9F BA 58 5B 9E 2A F7 AC AA AF F4
 3C E8 AD 03 98 AF AD E6 AC 4D B2 10 A0 96 00 CA
 79 00 32 BA EB FB A1 62 0D 51 CF 1B 6D 03 8C 8D
 5A 38 B8 F3 1C 63 A4 47 B6 E2 A2 23 2E 67 BB A7
 41 87 94 BE 52 FB 2C 47 B8 C7 A2 25 E7 98 DE DC
 2A 8A 8B 54 28 A8 7F 89 BC 23 86 02 DB D7 36 39
* End 180729566 1931528595