* LTspice Encrypted File
* 
* This encrypted file has been supplied by a 3rd
* party vendor that does not wish to publicize
* the technology used to implement this library.
* 
* Permission is granted to use this file for
* simulations but not to reverse engineer its
* contents.
* 
* Begin:
 E8 24 F5 EE 69 1C 7C F8 C2 18 EC 6A 30 09 98 12
 7D 62 9E 54 6F 7B 94 71 12 0F B5 69 6E 4A 43 48
 94 06 D2 D3 90 33 87 01 24 47 DC 7D 8B ED 6E 9B
 56 C2 14 D2 ED 3B 91 C3 30 A3 B0 49 8A C8 82 B8
 94 49 4B 4D D1 EA A8 17 48 DF 6E 50 0D 56 51 BA
 FA C3 9E 7B D6 EE DC AD 5A 60 5B 6B 6E D1 F4 A1
 78 80 E7 4F 4F 0F 7F D2 7C D0 13 42 FF DD 04 9F
 6A 4E 2E 3C 8E 55 49 D4 64 F6 E2 68 B7 3F 97 6E
 D4 38 EA BB 19 BF 02 C6 DD 6B A7 4D EB 29 3E FA
 64 8A C1 CB CF 51 E1 A7 BE 19 BE 4C E7 97 B3 15
 CD 9F C9 27 A1 15 2B 3D 3C 4E 8B 1B 28 BA AD 0B
 A6 C8 F3 3D E2 42 7C 16 15 E5 C7 F4 E4 1E 4D 0A
 CE 4D 74 EE 12 4D 07 F0 98 80 E5 3A 0D DA CC 12
 40 99 B1 F2 73 2F 1D DD 2A 7C DA 1B 8D 2B 56 ED
 0B C5 E7 34 0F 34 7F AF 12 BA C0 3F 19 B7 BC 3C
 33 F1 CF 0B CD 36 4E F5 6E 0B 5F B3 A3 02 16 31
 53 C5 A3 A3 76 04 C7 B7 27 4C AB C2 6C 10 BE 04
 6E 3D F2 DA 9E 34 13 A2 A1 13 27 1A FC F3 EF 70
 01 E1 DA A5 3A 02 4F 6E 8B C1 68 7A BE E4 9D 69
 67 1A AC 39 39 CA 74 84 E7 4F 6C 26 30 83 28 D3
 89 86 27 B2 CA 54 B1 CA 94 26 40 6D 50 D9 D3 F3
 52 13 C2 03 89 E0 02 92 42 1B ED 45 7E 17 56 01
 15 AE CC D1 25 14 D9 4B 34 11 CA 52 CB DE 2A 45
 1E 47 AC 2D 6B F8 9F BE C5 CD 54 8D BD 64 58 A7
 73 6D 3D 5B DD 3C 9F FB E5 93 17 29 B7 70 82 00
 8B F0 0A 6A C3 49 81 08 17 54 24 AA 7C 96 E0 18
 20 C7 18 AD 37 27 9E 49 54 D8 AC 9F 58 A7 CA 87
 95 94 04 14 33 7B 6A 6D AC 04 BF 3B 34 23 BD 77
 1C 27 CB 4F F0 D6 A3 8C A3 95 9F 99 79 1D 93 8E
 93 C9 3D 7C 5A 19 B7 42 51 8E 69 F0 8B 29 82 89
 F2 78 83 BC A8 EA 7B 19 74 F1 3D 24 8B 7F 25 74
 30 7F B6 77 2F EE 95 E0 67 F9 CF 0D 4E 7D 55 E2
 89 5E 31 87 EE 95 07 9A 88 C6 7A 78 97 F9 DF FD
 1E 49 3B 36 EA AD AB AA C0 1E 7E 25 D9 14 86 16
 BC 68 E0 CE D5 F4 48 55 C0 3B EB 64 7F A0 BE 38
 C0 3D D3 AB D1 9E 28 69 0E 37 57 CC F4 8E C5 ED
 1C 4D 7A 38 E7 76 66 BE 88 84 E5 E1 72 85 51 FB
 EF EF DF 4F F0 33 0B 98 4E 05 C2 C3 F4 E7 9F EA
 DE 9D FA 44 C0 2F 8B 78 FA 65 F6 25 5F 81 73 A0
 4E DB A1 47 EB 80 04 45 34 DF 33 F4 6A 78 31 44
 58 15 83 39 6A 73 E5 38 EC 99 3A 68 68 62 F6 B4
 85 FA 8D 04 77 CB 47 A5 5C D3 56 48 E7 42 B2 B9
 28 1D 18 A5 63 93 0C D5 94 5A 9A DC 7D D7 67 90
 EA 04 1C 09 A1 6A 07 EB 02 EA F4 44 25 DD 66 E0
 16 1D 76 88 61 BB 20 45 2A F0 0F 43 49 A7 F0 CD
 59 18 77 F9 3C 40 92 DB 0A 4C FC AA B7 87 D5 D7
 A5 F3 67 66 B3 5D F3 91 39 4E 4F 77 0F 8E 73 35
 9A F9 DC 34 0E F9 66 35 4E 73 3A 75 97 F4 DB E8
 25 3F 0F 95 3B B9 F9 7B A5 A4 BA 97 A0 75 0F DC
 86 5D CD 70 CB EF 6F 0A 79 FE 36 2D 53 6F 32 41
 E4 6D 44 40 DD 47 1D 5F 52 85 43 4C 92 EB 14 7D
 58 D1 55 E6 64 98 7F 41 31 89 03 71 57 00 48 77
 0D E8 F0 E7 3A 96 79 AE 04 B1 23 71 10 F2 7D 71
 7C CD 7B 1A 01 BE AC A1 9A 9B CD 91 42 CB E3 99
 29 9E 2D AA 63 96 00 08 B0 A0 76 5A 7A 96 F5 63
 A4 88 2C D9 EA 00 4E 3A 52 87 82 C2 95 C4 09 BF
 11 23 D9 20 F4 FC 1D 1D D0 B3 80 DE 50 02 AC 2A
 5C 06 20 11 A2 C3 D7 33 5B CF AC A5 56 E9 EC 76
 4D 05 23 44 1F 24 ED C7 76 36 75 4A 6B CD 87 B8
 03 E3 F8 BE 24 E8 F3 B3 E6 4C 05 E5 E4 E2 40 83
 57 53 E7 3E 16 EF FF E8 65 98 D0 33 77 30 77 C5
 D9 5D 9F 1F 96 C2 A2 C7 C0 70 66 04 73 0D 00 5E
 CB 9F 2E 48 95 88 EC 8A D3 2C 52 AF 3F 59 9C B0
 D8 B8 45 48 EA DD 1E C1 44 8F 10 1D 9A C1 92 47
 0D 5E 75 0B 45 5D 48 61 0B 06 2B 50 0D 32 16 C8
 65 9D 3B 1F B5 75 AF CF 57 63 E9 B6 D7 7E 06 6F
 D8 D9 B4 C4 B5 D0 76 50 E0 84 65 1E 60 69 EC 7F
 A5 E9 CF C8 CD C4 1E 12 5E 46 1A 0E 8D D3 EA 78
 D9 C3 C0 B4 89 A2 86 D2 4D D3 29 CA 8A 4B F8 28
 66 93 99 E0 6A CA 75 F4 1E DD 14 21 90 13 6A 92
 C3 51 5D 37 0C 10 B2 33 4D 46 C4 8E 5F E0 DC C2
 6D 62 D7 8B 36 BA 78 1A B2 C1 F3 B4 E9 C0 92 B6
 A8 70 CB 40 F8 B2 7F 5E 09 B9 14 EA 38 3E 81 1C
 AD 21 59 A8 C7 21 38 D9 EC 6B 0F F8 A6 25 73 6C
 50 B3 54 52 D7 4C 55 A0 89 C4 88 87 02 D3 EA 0F
 C4 A5 A9 AA 24 45 79 D2 58 55 66 39 6E 98 7F 17
 93 01 F4 FC 1A FE 1A 1C 83 EE 8F 4A 6A AC 57 87
 7E FD BF 4C 0D 90 8D 40 38 C1 D5 80 73 2B 9A F4
 EE 23 7C DC 50 8A 1F 15 B1 B8 85 B4 4B 9C A4 3A
 71 B9 1F 20 10 00 B8 9E 85 FF 8F A7 CD 15 DD 01
 09 37 3E A3 90 94 07 64 4C 92 FC 05 B5 65 CE 26
 81 44 CA 1E 46 7B EB F1 E5 4A B7 C4 A5 3F AA 64
 46 82 08 0E E8 D0 93 04 B6 35 7C 0A 5F FE 38 97
 ED 5C A4 2B 41 BD 96 5F BC BD 95 AB 2C 6A FD 06
 89 4E D4 A9 83 9B 49 87 D7 E7 24 27 B9 DE 37 C6
 0F 56 3C 08 2A 8E C5 89 15 24 85 33 2F 48 C6 81
 F3 92 3A B9 BA 0D 52 D1 92 8E 33 D6 9A 07 34 04
 42 AF E4 A1 D3 FC C0 1D 7D 7E 62 17 4E C7 E0 5C
 8B 7C A8 1C A3 8C 09 69 19 AC B0 65 E0 CA 5B F0
 EE 1A 66 6D DD 16 43 88 68 B2 BF 54 D6 29 CF DF
 1F 54 24 03 0D 20 E5 D7 17 52 11 F1 B9 47 75 F4
 A1 9D C5 E6 7D FE 56 EB 91 AE 38 8A 0A 31 01 AB
 68 79 C1 6A E8 A7 74 A5 C7 FA 09 0A 8E 08 C0 C3
 4E 04 97 41 2D 2C AD 95 BB 3D 97 2B 16 9B 15 DE
 E1 DE 37 75 E0 77 21 42 CA C9 9E F8 69 BE 78 57
 07 2E C2 27 74 F5 A6 1A 2C 4E 0B B8 59 D3 5E AC
 01 A6 F3 5E 38 EC A0 76 03 CB CC 69 CA 3C BB 24
 B2 A7 C0 A8 C2 20 0B 5D 6D 69 E3 1A B3 D3 B9 72
 1D 75 2A 83 08 C6 8F 3F 7C EB 99 47 99 33 F1 C7
 3C 13 BA 6A B9 1C 10 1B B5 F5 62 16 A2 18 6D 30
 64 31 73 10 57 7D 54 29 86 D5 99 1B 4A 0F C8 8C
 05 B5 5D 02 E3 C3 6C B1 75 07 EC C8 91 BE 26 57
 10 8D 20 04 B2 38 D4 66 44 0E 9E 09 EF D6 B4 70
 8B 5D 70 E9 B0 A4 17 AA 50 6F CC 8D 20 BF B9 0F
 BB 7D 99 43 91 88 58 7A FD 11 4C 1D 5E BF A0 DD
 D5 91 69 CD 41 26 58 D6 79 E3 E5 3D 4E 4D 6F 8F
 7A 62 1F 26 B3 48 ED 47 CA 74 42 80 88 EC 0E DB
 F9 BC 32 60 84 4D 55 F7 C7 71 77 9C 45 43 B3 F9
 F6 D5 26 B5 BA 88 BD 1F B6 50 24 38 19 BD 17 0F
 97 03 8A BA 70 97 B3 DD 6E 5B DD A9 82 74 F3 D9
 C1 FC 4C EF D0 11 A2 63 19 A5 32 D7 A7 31 80 E9
 AA BE 80 95 A7 23 D7 F5 78 C7 4C ED 3D 85 04 C2
 FD 32 F7 6F 13 B6 85 98 56 AF C0 19 A7 19 71 09
 B9 2F BE 41 FC 78 37 70 55 F4 EB 4C F5 02 61 26
 37 C2 3D 2D 7F 11 5D 5A 2E 67 36 E9 3B 8D CE 49
 A7 46 F7 2F 04 48 F0 B8 6C E2 D3 6F ED 5E FD A0
 B6 A2 00 BE E0 6F BF AB D7 84 33 E0 90 79 AD A7
 87 CF AC 85 4D 4E CA EC 32 0F 12 3A 97 5C A0 04
 A2 35 52 2C D3 75 89 B9 82 F9 AC 7E 46 C3 A9 A5
 53 3C E2 CF DE 0C 2D FC 02 6F B7 0F 6B 4D 15 E2
 A2 C6 61 27 70 28 C7 75 0B 28 FD 1A 87 B6 34 89
 7A 22 66 C8 2A 75 C2 3F AD D3 7C 28 14 4F 31 87
 27 6A A0 EB F3 7F 91 3C D3 60 76 72 13 C0 D6 12
 1D 02 20 09 41 24 80 18 EA CA 56 9B 34 23 4A 80
 32 0F F0 72 24 49 D6 5A A3 AF 5B CD 16 69 C0 F0
 D3 7C CD 46 23 B9 08 02 09 C3 9A 4A FB 0A 52 0C
 6A BB 8E F9 92 3D 72 08 BF E1 2C A5 75 02 42 14
 44 31 82 6D 5B 18 4F F8 6E F6 61 78 42 94 A9 49
 DE 64 4A 5D 8B E1 C2 4E C2 09 22 32 57 E5 08 F6
 B4 9D E7 7A 73 2E B0 CE 23 06 5E F9 E0 50 FE 1A
 51 04 7E 3F F9 0F 0D 07 A9 D6 A3 14 FB 7A C6 A1
 86 1A BB FE AF E6 EE 4C F3 A7 8B AA A5 9D 87 61
 62 4B E0 72 36 8F FE 6E BA C0 85 1F 4C DC 1A 11
 86 4B 44 78 F9 03 04 C8 A8 1E 23 58 D5 0F BB 37
 D8 CB 24 06 53 65 1D 11 DC 21 1E C5 25 7E 63 9A
 FC E5 19 A6 4F 80 84 5F F6 97 75 06 02 94 2F FE
 30 EF 13 34 5F BB BF 17 7C 13 C4 87 C1 D0 EE FE
 73 E5 58 66 91 AC 31 C4 87 65 2D B9 9E 1C 2F FD
 D9 19 EB E6 D4 00 80 EF 16 4B C3 3F C3 16 5E 80
 1B DB 73 40 99 8F DD BF 5B EF 66 13 98 29 D2 7F
 73 2F 84 69 90 9A 52 B3 53 1C B5 2F 93 E3 99 69
 73 EE 6D 2D F0 F5 56 17 DA 37 C7 68 79 AD 79 38
 91 27 E2 EA F8 47 FA FE 6D F5 4E C7 70 BA D7 B7
 DD 36 C9 45 D2 DE 35 8E CD AD 6F 86 38 A8 0C 5A
 5B 14 95 07 3A 3D 0C E3 A2 39 FB 84 04 06 AA A8
 EA D6 38 1B 1F E2 64 01 95 8B 3D 20 57 FD E8 A2
 A5 D5 72 27 5B ED 50 EE 05 14 17 9B CF 14 47 C5
 50 89 BC E1 CE D6 F7 36 8C 21 4C 00 93 5A 6E 04
 1E 34 95 95 DF 0C 59 95 19 24 05 4B E4 78 5C 3C
 69 FF 8E F1 B7 73 BF F9 90 90 21 43 59 76 8F DF
 B8 71 5C DB 2C 9B DD EF 15 95 F4 8A AB 37 86 F8
 E6 2A E6 45 37 C9 2D D7 AC BA 2E B1 2B 46 92 64
 78 47 4E 5D D2 9A 44 D8 25 07 41 12 82 BB 1F 6F
 4C CC FD 9C 5C 96 99 3B E7 4F 5D 3B E1 3C 71 DE
 AB 73 16 48 D1 CC B0 12 FF CB 51 D4 CB AF E3 6C
 7A D4 44 FD 1C 36 14 E1 FE 4E 1E 2A FE A6 9C DF
 F3 18 9F 82 FB 83 EE BC 78 B7 10 A8 FC F3 62 E8
 42 B6 37 EE DE 31 6D 08 F4 19 31 3C D1 F9 40 AB
 97 B6 32 7E 58 A2 D4 BC A0 4B 64 F9 A4 CC 2A D3
 7F 1F 76 4A 35 02 3B 60 47 29 55 2F 88 1B 6D 4F
 8A 78 37 36 EC A6 85 78 33 88 7D 8C 4B 10 CE 4C
 0E CF 40 12 DF E5 96 DC 46 B4 14 91 AB 49 8E C0
 4A B0 A5 53 AF 79 7D 93 A3 57 9F 24 90 65 DC 1E
 1B 8E 5E 4E 59 F7 52 D4 F9 C0 93 BA 0E B2 48 79
 D9 B2 57 2C 71 F9 6E 59 BA EE 58 84 09 B7 34 AA
 D6 63 AB 91 21 FF 48 61 66 AF 8D CF 5B 6D B4 46
 12 A1 76 6F F1 E5 1F 5C 75 9D 3B 52 23 F7 C4 A3
 8E 0A AA 1E FF EE FA 4E CD 13 58 36 15 07 7E CD
 70 5D EB 68 81 76 EE D8 EB 9A 1F F3 C7 1D 2A 63
 4E 1F 5B F3 16 2B 9E 9A 21 4E C6 6A 5A A3 BD 6E
 61 27 E2 4A EE B4 68 D3 35 99 EA 3E 3A D3 71 E0
 66 74 AE 0E 73 C4 35 2E 26 82 E2 EE 5E 36 96 6E
 F0 7E D1 F5 45 A6 07 68 81 13 74 30 88 52 54 82
 F2 E1 F2 AA 58 ED 6F CA 42 20 18 69 4C F2 88 A2
 7F 6C 18 E1 A8 97 72 F6 26 27 9B 49 71 BB 85 E9
 7D 97 D9 3E D2 FD CC 06 AC 25 92 96 5F 3A E7 F8
 74 A6 E5 98 22 62 A8 64 55 24 CE C6 0F 4E 0C 19
 B1 5A B3 C6 E2 73 71 3A 2F E6 CF 3D 47 1F 5C 9B
 ED 4A 61 D2 29 13 90 2C
* End 3049746711 1637758893