* LTspice Encrypted File
* 
* This encrypted file has been supplied by a 3rd
* party vendor that does not wish to publicize
* the technology used to implement this library.
* 
* Permission is granted to use this file for
* simulations but not to reverse engineer its
* contents.
* 
* Begin:
 9D A8 C2 AE 50 5D 42 94 CE 86 6C B8 F7 AA 11 5F
 81 56 24 26 CA 83 A3 73 3C 72 B5 F8 1E 47 4C 2E
 9F 4C D5 E9 D6 D5 63 1B 62 3A 51 1C 8A 2B 23 27
 21 8C 3B AD 82 44 08 22 6D A5 EA 38 49 9E 61 47
 8F 4A 7D 9E 6C 5B 31 99 2B B6 86 B5 5B 36 46 D9
 69 01 0A 95 67 5D 13 AD 22 45 4B 49 41 DF 0A 69
 B5 87 93 5A 43 87 BD 5F DA A5 DD 36 03 89 3A 91
 4B DE 2E 06 E0 C6 AD 18 E7 DA 28 7D BB FD A8 3F
 EA 63 88 73 1F C8 08 17 6A B9 C6 64 31 80 DE 77
 CF CF 9E F5 E0 F1 71 EF D7 37 06 25 6D D4 23 C7
 7D 44 32 B9 A4 67 C5 09 9A DE 06 8A C4 06 08 D4
 FF 9C D2 74 E4 65 42 5A DF E4 FD E6 87 E1 DD FA
 0D DB 73 89 E9 5E E0 93 66 FF D8 AA 40 EB 2C 21
 01 37 8C FA 2C 4A 7A 44 81 90 4C 27 24 7D 50 84
 1C 8D 18 E5 3E D3 83 0D B3 59 0C 26 23 D9 B8 B6
 DC 22 D3 22 28 96 72 CD FE 5C 39 9B 47 DE 33 F7
 6F BE 4F 0B 1F 37 C6 06 B8 B3 41 0C 4B C7 37 63
 63 85 E2 25 5F 69 AF E0 18 30 61 69 CC 76 AA ED
 C8 D1 26 0E E5 8A 2A 80 F3 45 2A 41 30 A1 D0 A2
 E0 A0 B4 6E F7 B3 A1 0F 49 8E 83 91 BB 90 FF 4A
 0A 84 D9 52 A8 CE 2F DB A0 95 50 91 32 B1 84 F8
 F3 A9 73 DC F8 89 6D E2 E3 80 6E D5 3F 6F FD B5
 9A 2E 0A 49 AE 83 00 51 D0 7C 48 51 3D CD 5A 61
 46 03 73 EE AB C7 8B 7B CE 30 71 79 C2 85 EE 5F
 92 F4 25 86 3B 29 A3 16 FB 14 C4 B5 CF 5B 40 2F
 55 AE 0C 35 97 30 8E D4 BE 66 16 AE 5B 50 79 86
 98 08 4E C0 8C 64 E4 35 D9 D3 AC AF D3 9D C5 2E
 71 FE 6B 67 37 23 79 09 80 C0 B3 34 05 33 3A AB
 85 47 D9 1D 4A A6 57 64 5D 9D 96 44 8F 73 50 C2
 E7 28 ED 94 89 E3 5B A2 13 DD 2B 49 55 0B CC 5F
 70 53 A3 E9 CC 8D BA F8 61 5D 58 9A FA 0B 5A 41
 BC 59 2C A5 C4 F6 CA 36 A8 AD 9A C0 17 5C 96 0F
 2C 74 D2 C4 E0 17 EF C7 6E 24 E0 52 DC 0F 31 25
 30 9E DE 42 50 0C 20 71 FC 2E 1A FE 4E D9 60 1A
 51 8E 40 49 59 B7 D6 3D 88 9C DD D2 9C 65 16 9D
 D5 FC 74 A9 D1 26 28 F0 77 E7 72 EF 74 AB D3 37
 1E 15 9D 5C 1A 7F 63 CC 56 7F 5E A3 5C BC 4A 97
 A5 20 FD D9 A0 95 0E 2D D9 EE 93 2E 6F 00 07 26
 E5 49 3B DF 51 6C 9E F8 2C 6F 3C 57 D3 44 C1 1B
 52 39 04 D8 80 1B 2E 1B 9E 95 1F 7F 54 17 A0 CC
 BF 66 A4 E7 2B 7E 1E D2 3E 3C 44 94 9D BD D7 73
 A5 88 69 E1 E7 48 C3 58 89 97 73 7B 3E B4 5D 53
 53 30 66 4B BE CC 5A 5E 12 8F 74 79 2B AF E8 90
 23 51 3E 28 33 A1 10 C4 4A D6 20 47 89 98 17 C9
 AB 51 ED 0E A3 A4 F3 0E C7 E2 1C 37 F2 48 82 07
 0E 9E ED 0F 1D 7D 8C 0D 59 17 70 43 81 F0 D1 97
 45 05 47 F1 11 62 D9 BD 79 E0 B5 C7 AD 17 04 C8
 BA 1B 71 18 56 BC 48 65 9D 54 E0 ED EF 9C 6C E5
 D7 D2 05 B9 9B 7A B5 D6 81 A0 DD 12 E0 CC F5 F2
 6B 83 0B 3A 56 7B 40 8E FD AA E3 0D 98 4C 2F 41
 5C 91 94 08 D2 98 0B 26 2F 2E 54 36 D2 BB A6 8D
 E1 34 7E E2 B9 46 F9 C3 22 0A AF 51 0D AF B0 71
 43 16 4E 08 72 70 82 9D DB 9F 8B CA FB 5D 1A B4
 64 DE 75 1C 86 8C 45 70 0A 37 E8 CA F3 7A BD 5E
 21 C8 BC B0 AC E8 B9 AC E8 3D A3 42 EB 35 35 89
 0F FD 3C F7 2D B4 03 A7 29 AC 71 C7 49 E2 5A D0
 21 6E 13 8D 23 2B C4 58 16 56 A3 F5 A8 09 27 9A
 BA 9D 7A 39 E5 9A 6F 24 85 9D BE 6A 68 9C C1 1A
 44 C5 FD 5F 07 6E 4A 71 0F 1C 9E A8 C7 F0 59 9A
 6A 7E 54 80 C3 EA A7 3E F8 9F 9D 55 F7 AB C6 37
 F3 4B BC 2D D5 C0 15 C7 45 2A 31 13 CF 46 C0 C5
 FC 86 29 4C B7 DB 2F 99 F8 65 22 63 21 C1 69 F7
 E6 E9 5C 95 DE 08 19 0A CA C2 09 C2 B7 14 66 A6
 0D 86 CF 88 55 36 24 D1 EE AA 0E 51 EE C2 FB D1
 10 A0 D5 F4 FF EF FB D1 79 08 FC 8F 21 48 93 6C
 0C 4A 4D A2 57 1A 87 5F 8C 97 EE FB AE 0D 94 49
 DE 1B B0 C5 58 CC FA 27 81 4F A4 F7 D4 22 39 FB
 3E F8 F8 FC 14 0B 6A 4A 44 9A 41 83 E3 38 D0 77
 19 13 9B D8 7C C4 2C AE 1F 48 56 56 99 9E CC AF
 18 C4 B5 DC 58 86 90 3F D9 B0 16 30 43 A8 9B DB
 1C ED 4F A2 18 40 D0 FB 84 C7 3C D0 5F 8C 71 15
 CE 0F A4 82 1B D7 06 BF 2D E6 76 FF 35 CD 53 AD
 A6 E8 D8 9F 05 B8 45 47 23 D0 8F 0E FF C7 EF 4E
 71 30 76 F5 DD AD 94 B1 93 32 C1 23 87 7A AD CA
 85 FC D7 09 44 28 EE A3 B9 C5 F4 66 61 28 C4 7D
 2E 81 BB 5A 52 2C F1 15 0E FD 04 E9 56 4F 2D FC
 65 8F D0 72 46 24 39 C6 2C 78 DF C2 18 B0 C1 B5
 64 BF E2 F7 BC D3 30 24 6D A5 82 B9 00 6A 08 59
 7E DC 1A F9 20 24 63 89 59 4B 6C FF E6 12 1E CB
 94 63 BB 01 95 C3 51 A0 80 CD B0 46 34 29 78 0A
 08 34 C8 0E 31 12 86 3E 46 1D AD A4 99 39 3A FD
 C8 45 67 CA B8 D7 CE F2 A7 E3 A5 C9 68 B9 C4 F0
 C9 4B 61 D3 3B AD 6F 11 EA 06 86 55 15 0E B0 94
 C3 7B 28 D7 8E 71 2B BA 6B 96 EA 8C 6B A3 CF 5E
 82 23 F5 D0 57 BF 44 39 73 5E C2 93 61 2E 5A 96
 32 30 9A 44 6B 65 87 53 38 B6 4D 76 D6 47 1F 23
 19 0F 31 7A 55 71 BA 52 1A 1E 66 E2 9E 93 44 D6
 AE 23 6A 1B 4D F8 9E 2E 37 2D 21 53 3D 01 22 33
 3A D5 D4 F5 B2 1F 7F 51 1C D9 84 45 12 30 28 A9
 B6 92 F3 7B 61 4E F6 35 16 7D 36 63 DA 98 CC F9
 11 91 98 16 A7 14 17 CE 04 17 8C 0A F3 73 88 D1
 C4 19 B4 03 5A DB FE D2 A2 2B 77 D7 48 EA E1 CD
 54 D4 E3 80 9C 64 1C 2C B5 C9 24 1A 67 40 96 CC
 76 9D 31 AA FD 75 EA 7F 5B 44 52 B8 A7 94 18 F6
 58 1B DE 69 3D 25 78 A1 91 A1 24 C1 BA 37 AD D6
 34 7D 34 4C C9 FD 74 F8 00 90 68 EF EC B6 B5 DB
 63 6B BD A0 E1 5E 20 B9 D8 3C 29 B5 2B 04 03 27
 72 1C 57 BA CE 1D B9 90 97 81 EF 75 B9 23 B5 FB
 3B 3F 33 E3 5C 37 FB C1 C0 50 06 36 69 54 DE A3
 02 93 68 89 CE 34 FA 01 7B 8D C5 4F 82 F8 57 3B
 D9 6E 54 5C B5 BC CF 5B A8 37 47 7C EE FB 9B 11
 F6 4A AA 69 24 C2 81 82 C1 2A 6B 53 17 4D AF 21
 CB 90 A2 0C D3 E9 B0 C3 48 62 B0 AF 5D BB 08 CB
 F3 2F 82 FA 63 B1 C6 24 F1 57 8E D3 1C 62 12 35
 6C F6 1C DB EA F5 5E 45 E4 CF 3E D5 F5 B5 EE ED
 98 83 1E FE BD 5F B8 82 30 E7 91 7E 8D 3B 91 50
 F3 DD 0F 18 0E 73 59 D2 5A EC 82 2F 96 EF 72 6E
 CF EA 9A F3 F5 CA AF 72 42 E4 AA 05 D8 D3 44 C1
 0D FE EF E4 C5 72 A5 29 A1 CA 85 28 A4 A6 45 A8
 16 E5 5D 8A 8F E0 26 F6 74 91 BE 8B 6A 74 FA A4
 27 22 11 14 6E BA FB 10 6B 67 BA A9 83 DF DB 94
 D8 D9 C1 A4 79 82 69 17 28 43 B1 D3 3F E7 EC 94
 25 9B D2 82 7B 62 C0 72 31 81 CC DF B5 EF 62 FB
 2F D0 F9 20 EB B7 C7 87 42 F3 BE 05 6E 15 00 78
 0B 47 B8 3E 4A C5 A5 A9 68 C9 03 94 57 A4 F5 A0
 9C 68 4C F2 2B E4 0C 80 62 22 7F E4 8F CE A6 44
 55 D4 9F 02 40 29 25 5F A1 55 55 D9 80 21 39 A7
 1B 44 1E 7F 8E 53 D0 D8 7E 9C A4 54 33 EA 81 12
 BC 73 F8 8B F2 E4 4A 8C FF D5 22 0C 7B FE 63 8A
 A1 50 0B E1 2A 84 4F 3B 7C FE 0E 79 2E 39 96 D7
 12 6A 9B C2 D2 85 41 B1 12 F0 94 2C 9C 41 60 24
 17 22 9C 1D A6 C1 49 19 E4 67 08 BC A4 A4 23 2B
 E7 D2 0D CF 88 7E 14 46 AF 41 5A 23 D4 D4 2B 88
 10 8A A9 51 CC 55 80 FA 89 C8 DB A1 43 25 B6 A0
 05 8A FB FC BB DE B1 CB BE 3D FA 06 12 7E F0 22
 4F B3 7F C6 A6 C6 33 7C E7 80 F1 FE D2 48 89 F2
 10 CD 0B CB 01 83 A8 4C F0 A2 0F FB AD 3C 89 0D
 57 10 F8 62 2D B5 4F 5D 3D DC E8 50 AB 80 3D 4F
 18 CC 88 26 1C 83 4A 7F C8 85 88 97 DE F0 06 7D
 59 07 14 C3 49 A0 E8 F5 55 67 0C 47 D6 F3 4C D4
 7F 2E EA 70 96 93 97 9F 1E D2 AE 3C EE 22 C5 92
 6C A8 AE 3E 55 56 5C 6A 32 99 DE 51 48 DA EF 27
 77 AA 03 77 8B 8C 76 5E C3 45 19 4F EB AD AE 42
 9E AA 25 52 C6 5B CF 0A F4 9E DB C5 75 41 BE 1C
 09 85 1A 50 D1 21 D7 5C EF AE C9 41 43 5D A2 DC
 03 99 AD 7B B7 8F 9B C6 9A BA 1F EA 56 FD C1 45
 0F 42 A3 C0 26 87 26 72 9D 01 A5 59 94 31 FE F9
 B9 0D DE FF 31 AA 64 B9 7B 9A 61 A7 6D 5A 41 2B
 26 87 FF 81 6D F9 46 85 2B 12 C9 51 82 54 30 27
 85 47 BF 78 31 C7 03 7A E6 B8 C4 AB 0A 18 1D 17
 63 25 BC AC 16 16 C6 39 12 17 D6 3A 4D 63 ED EF
 EB 8C 35 67 86 76 D3 DE 30 29 E5 B0 0D D5 C4 3F
 AB E3 EA 0C B0 D3 47 BD E9 AB CA A5 31 AE 1F B2
 4F 02 BC B1 96 17 F2 4B B0 15 09 8C 9A F1 04 3D
 5A 98 66 00 5A 2E B7 6F 50 35 BC 94 74 B0 04 5D
 97 E9 6E 6E FB 78 8B 1F 37 87 25 95 7F 05 C9 3E
 6E 14 39 DB 9F 65 DB 0C 56 01 F6 3F 48 DD 3C 6E
 06 83 14 79 7C AF 34 93 08 E6 7E A7 62 D6 3E 9B
 65 35 E5 D0 3D 05 6B 35 DF 6B C6 D3 C2 8C 77 D8
 84 23 33 FB E0 B1 E6 3B C5 AB 8A 15 33 3B 0A 65
 EB 8F 88 4B 56 5A 49 FA 4C A4 AE 43 A4 B9 0F 2A
 64 04 E9 F0 77 EC 20 62 A5 E6 E9 EA 6A CC 0F 88
 CA 82 84 69 AC 6F 39 3A C1 8E B1 C5 1F 62 0D BF
 5F B4 92 F7 64 D8 70 E9 5B E8 27 8E B7 87 9B 19
 B5 E8 C2 1B 3C 87 19 20 81 DB 4A EE AD E3 73 BC
 48 D0 06 7C 6F 38 57 13 14 FA DA 31 56 7A B0 4B
 B6 AA CA D0 7B 65 87 6D D8 B4 FE 4A BD 66 52 61
 45 CA C9 F6 B1 75 BF 35 F2 DA 1E 06 93 88 26 EB
 92 34 48 77 56 16 9E D3 90 E1 CC 17 FB FD AB 15
 5B 50 3E 08 2A 2D A7 D7 82 74 DD 66 85 FA 3E 67
 4F 6E 63 52 63 0F 78 FF CA 9C 2B 00 19 96 F3 C2
 3D 4E 76 F4 23 6F EE 35 7D B7 1C 70 04 EA 80 D0
 FD 3C 04 75 7B 0F 3D B5 4F 57 FB C1 0C 38 5D 8C
 4C E2 8A C8 66 E6 95 B8 54 6A 8B AC B9 22 8A F2
 83 BD 97 C9 A7 C6 56 89 27 84 AB F7 C0 89 64 90
 0A E1 F3 69 C2 CE A9 53 89 CA 3D 3E E6 20 ED ED
 91 76 D1 91 44 45 D2 2C CA 37 27 99 B1 C3 CF EF
 76 66 99 0C 75 5F 0E CE 3D 41 C1 E1 39 8A 07 27
 84 8B 57 E1 9A F7 5F FC C8 EB 55 FE E4 7B 89 F6
 22 2E 93 F7 2D 38 0F EC A4 9E 9F 8D 26 67 3D ED
 B4 2D E9 9B D6 97 AC 56 53 5A 49 6E A6 72 FA 11
 17 45 9E B1 94 15 CA 71 12 AB 11 BA DA CD 63 B9
 59 E9 D8 16 F9 6C 88 81 E5 9F E6 F8 4A 2A A5 D9
 88 93 62 3D 93 44 E2 CB D6 63 BB C1 5B EE 1A 33
 E7 54 4B D6 9D CF 81 08 8C 98 34 0C 4F 7F CB 30
 36 D4 A6 9D 7D 14 46 DA 7D 48 A5 BF F9 E2 4F 21
 46 63 74 3E 7F A9 28 F1 FB 27 E7 21 C1 31 63 07
 1E E7 FD 06 62 42 68 F6 8B 10 35 BC 53 83 01 01
 44 3C CF CA AC C6 31 A6 87 97 0D 44 B0 AC 5D 95
 DD 70 F0 A9 8C A7 13 50 E4 D6 B9 11 CD DB BC 08
 5F D8 90 20 F5 C5 06 98 ED 37 AD 5F 1C 1D 50 12
 7F F8 45 90 F1 80 C3 9E
* End 3205619753 1494963354