* LTspice Encrypted File
* 
* This encrypted file has been supplied by a 3rd
* party vendor that does not wish to publicize
* the technology used to implement this library.
* 
* Permission is granted to use this file for
* simulations but not to reverse engineer its
* contents.
* 
* Begin:
 26 63 6C B4 13 2F 38 DB 74 48 D2 6D 0A A7 D6 C4
 C9 AA CC DF F5 40 83 07 F5 25 49 26 7F 80 A1 AC
 A5 87 EC 88 62 E6 90 D3 10 6B 79 F0 84 C7 4D 6A
 A3 DD 4A C9 08 29 81 50 FA A7 8A D6 17 6A 2E 61
 1C C7 8B D3 96 A3 22 C6 3D A7 0D 82 9E 67 9C 13
 4A 45 65 0A D1 FE 1B 26 7B 3B C4 15 EE 5A 66 A4
 2C 94 C8 A6 5C 52 44 11 0D 15 BD 8E 11 BB B7 95
 E9 CE B0 A6 00 61 8A 36 EE 55 6F AB 24 F7 A8 74
 7F 9C 09 CE FF 29 F1 F7 45 AC 48 CA 51 97 5D 78
 20 45 E2 BC 2A B8 C2 11 AE 69 EE E1 88 27 42 66
 5D B0 16 62 44 3A E8 70 6F 8F 51 A3 56 5D 2B 41
 6C 2A 2F BA FC EC D4 5A 02 A1 F1 4F 14 04 9E 4D
 4F 40 EF 6A 37 E3 99 97 5E CC 41 9D 89 AA 6E 90
 0F E4 28 DF 06 C2 20 05 B7 E8 4A 47 BA 7F 58 75
 CD B9 B9 F2 7C 00 65 FB CB 44 A3 A5 A7 D1 23 35
 29 42 E4 6B 4D F0 16 7E 8C 88 7F 03 EF 1F 92 F9
 40 8C 85 10 16 2B 8E 5C 14 AB 17 80 23 49 BE 9F
 BD 24 04 80 05 1B 55 9A 65 7D 6E 2E DA AA F3 A8
 2E E2 D0 D6 84 11 23 D4 AB 81 20 BD 59 69 B4 F5
 5B 63 20 96 82 7C 59 47 BF C8 45 83 35 39 2E DA
 A6 6D 10 A3 FF FC F0 BF D4 5D 3E 4F 64 B2 E3 96
 05 3D 0E 38 C5 08 AC 00 55 12 85 3C 0E 10 13 18
 B1 44 44 92 9D C8 59 DB 97 67 9B 93 48 60 AD 29
 8E 02 AA 8E 8B 06 17 B0 BF ED 89 62 F3 AF 6F 27
 E1 86 8C 50 EE 25 BC C5 B5 66 3C FE 22 5E CC 8F
 13 93 56 9C 1D D3 C2 5B DA 18 2C 82 27 80 80 CD
 DE 7D 00 42 26 11 C4 6C 25 37 B1 BA 28 51 A1 9D
 74 B6 2C C6 A8 03 FD B0 4D E0 38 A2 06 C1 09 C8
 59 5E D6 41 47 93 F1 E9 18 38 20 8B 6E F0 79 59
 2F AA A1 61 49 86 7D 93 A8 ED 73 B6 E4 40 28 AE
 89 E7 A5 73 99 A3 74 52 5C 2F AC EB 3E DF 8D A2
 06 57 E5 FE E9 33 9D ED 95 44 AD 80 33 20 A1 98
 BF 68 A8 7F 43 F3 74 5E 0B E5 B3 F0 54 EA EE 4E
 2F B2 90 FD B7 09 2C 17 1E 06 55 8B 21 B1 E5 8A
 EB 33 09 B6 CF EB CC A3 4D 53 4F 2F 2B 3D C4 7C
 3B 6B 3E 54 76 30 FA F0 FF 73 F4 14 17 51 E3 EA
 D2 2D 67 C4 1C 6F 86 76 63 F8 0D 0B 10 40 8F 8D
 FC 3B 17 C4 A4 64 89 35 18 10 C0 C2 D3 AB 8A 68
 26 0F 87 1D 9C F2 25 24 37 CB 88 A2 69 DB 6D 96
 6A D1 D8 D3 05 E1 A2 9E C9 BC AC 0B 8E 4D EF 10
 91 67 18 28 AE 89 9E 77 55 F4 AC B7 F9 85 23 A6
 F2 DC F0 0E 95 7C 90 28 5A 97 DA F1 75 BB 5A 1C
 AB 88 D4 5F 90 C5 72 F1 B1 A6 23 5C 39 5F 3C A3
 E3 D3 00 4B B7 06 6B BD BF 6E 1F 59 0F 9D 06 A4
 8A 6F DC D2 D9 00 88 09 69 49 C2 17 E0 94 9F 90
 95 F6 9E E8 B3 58 A7 49 61 CA C3 54 F1 B4 E8 D3
 6E AD 7E 19 F0 FD 71 9B 2B 36 6F 7B 26 C7 21 C6
 18 B3 D8 38 D2 22 9D 78 32 99 6E D3 60 CC B6 B2
 97 38 50 14 D7 CC 91 50 3D 34 A4 EA 90 AA FD 00
 3D 5E 9D 66 E8 FC 53 48 C7 BE A2 C1 A1 20 ED B5
 2B DD ED BE 02 D5 3E 4E 7A 9E 3D C3 15 7C 4A 16
 AF C0 0F 1C D9 74 C7 D2 92 81 B6 17 26 11 EF 72
 6F A2 FC 3B 74 15 31 76 67 B4 94 CD EC 6E 04 3E
 C0 A1 9D 4A 7B 95 44 13 2F 9C 2B C9 91 2A B9 A3
 4B 22 DB 7A 59 C9 5D DE 52 FC A8 96 8B F2 C4 7F
 D2 AC CE 74 D0 A4 17 5A F2 50 D0 E2 6C 95 EE 39
 91 BB 8B 1F 85 9E 80 0C 9B 48 F2 C8 D5 BC 3A E0
 73 30 F3 25 03 7A 5D 39 B5 4A 4C 3B 84 46 21 04
 88 77 8F 83 71 04 A5 EE A5 B6 58 B9 B4 23 94 BE
 40 8A 2E 26 1B A4 24 36 E2 39 77 4E E7 F0 1C 24
 E5 52 0D 00 77 E7 49 39 24 A3 D8 EF 2D 5C 70 BC
 8C CB F8 05 D0 A2 CB D3 88 53 51 C3 97 89 57 37
 B0 8B 7E A5 79 3E C6 65 E6 9D 80 07 0C 8E 5F 88
 1D 97 F3 98 C2 D5 47 EB 5A 04 14 B9 83 32 09 7C
 90 46 DA D0 84 A7 A8 E2 E3 A2 D6 13 FC 1F C9 96
 E6 82 21 D6 09 BD 69 3B F4 A0 B2 FE 3E F9 73 A0
 09 E7 E3 E7 F5 76 BF F3 BC 34 56 43 62 B8 12 12
 02 5A 2A 32 F6 A7 91 3E 94 73 16 02 E9 B4 0F 18
 84 DA 17 9E 58 A7 A3 E8 1F 94 92 EC 39 4D AE 58
 F3 B9 E5 7B 2F 35 0B 34 51 D8 3F 0B F7 E9 9C E0
 BF 5C 12 C6 DD 38 EE B0 A4 30 32 BB 39 82 4D E7
 F8 E3 65 B7 57 70 6B 4D 0C C7 EF 5C 7A 45 17 9D
 6B 22 E9 CF 02 8B C3 13 13 41 7F 9D BF 42 71 59
 9F DB C3 17 8A D4 F5 67 77 6D 81 DD 7C 6B ED E9
 39 5A 3F 4E B5 E6 CC 7F 2A 5F D7 F0 15 EE B1 68
 8F 15 AD 5E 6B B6 11 66 10 F1 F6 BF 30 91 57 C1
 B3 F0 9C E6 75 52 6B 4E 0A 4B 00 81 BA A7 DA DD
 A9 04 81 CA F7 88 92 A8 C9 76 87 F2 AC D4 14 F9
 46 35 AA 94 0B 70 38 DB 65 B7 67 DC 14 25 27 B1
 8A 80 B6 EC 64 6A DE 46 6F AA 43 F5 29 C0 77 53
 72 F2 79 28 4A 10 82 66 87 BB 87 FE 29 05 50 FF
 A9 46 71 22 02 BB F7 D2 13 E9 4B 82 7E 23 48 81
 C8 48 F5 5F E0 51 C7 5C A9 18 1F 2A 4E D2 6E A4
 C3 58 89 52 FF 15 6F 91 19 78 B4 4B EF 81 37 69
 5B 6D 8E E7 BF CA 42 97 5C 0D 51 35 4C C5 66 87
 07 8E F3 18 49 71 88 D3 5B F6 9D E9 30 80 EA 8A
 C0 31 8F A8 3C 0C DE 4C 04 AF CD 93 3A 4A CC 82
 D8 F7 B5 20 A0 53 CE 87 32 84 F6 A5 7B B9 A1 0A
 40 4A 41 30 ED 73 BC F1 72 A7 37 B6 84 F2 2D 43
 15 6B 82 2B 7E 0A 30 C0 62 2D C6 97 9E 8E C1 96
 88 F0 A7 AE 9D 0D 5A 8A DD C0 25 27 D5 A8 A1 45
 17 E9 61 83 3A 18 5D 61 B5 E8 FF 13 95 62 4A BB
 AC E8 28 2B 70 E8 02 4C 6E D1 53 40 01 3C C5 D4
 46 C1 D7 A6 B5 F3 77 D5 A5 8D FE D4 28 8F 57 69
 EA 73 4F EC 31 48 EB 1C 12 15 6D 1F 3E 7F CD 16
 EB B8 83 08 F8 5C E2 6D 19 A1 EF A8 C1 B8 98 5A
 95 1D 33 73 F2 1B 56 E3 AF F4 53 A8 25 78 EE 25
 FF EC 38 45 77 50 69 52 30 3B D1 7E 60 B0 85 70
 67 96 BE 0A B8 A3 A7 F8 02 5D 21 7C E4 B7 1C BD
 0A 2B 7B 65 83 A3 9A F8 D1 EC 92 D4 47 57 99 35
 CA B9 E0 9A BB EB 81 E0 C6 00 A2 CA 5C DD 03 B3
 DF EC 89 DD AF 93 10 15 D6 56 AB 3E 3E 04 B4 1F
 FE C9 11 7D CA 6A 66 BB 55 5F BC 88 9D 2B E4 9F
 97 01 18 94 59 2A D9 61 25 C6 24 1D 5F 95 B7 BD
 1F F5 73 FE A2 2E 85 13 9B 01 66 C8 85 F9 F8 B7
 72 66 CD 6E 3E 7F 37 41 F7 A0 35 DC 07 84 37 1C
 F1 84 14 B2 6B 2C 79 D2 B7 8F F5 17 42 4A 12 4D
 A3 3C A3 6C 2C FD 5B 89 02 72 4E CC AB 2E FF 0B
 1F F8 85 CF 91 C5 E5 81 A7 04 FC AB E0 A5 BF F9
 DD 07 00 63 88 62 04 34 64 43 E1 7F 2E C1 98 70
 88 7C 32 B4 40 1A 6E 31 6B 12 1D AD 1C 86 ED B8
 BC CB E5 47 99 7A A0 98 33 6B 19 FE F7 93 1C C4
 81 6F 9E 0B EE 27 05 18 65 31 0C BE 60 B1 C3 5C
 C0 DF B1 2C DA 17 F5 49 77 13 61 78 62 AF 05 68
 8B FE 72 1E 49 79 7A 5F A1 5C 33 1E FF 0F 10 2C
 E9 19 BD DA 03 2F 75 CB CC 34 69 B4 CB F0 6F 7C
 30 CC A1 E6 8C 9C 99 24 5F A8 31 96 B9 D2 33 63
 2F 36 34 55 53 40 B1 3C 31 25 1F 11 1B 82 C7 B8
 C3 4B 76 F0 CA 9D 18 D7 4A AD F9 27 5E 58 C6 E6
 6B 99 95 34 D0 04 EC 11 36 6C B8 D0 2F 98 F0 E0
 17 C8 79 1D 2A 70 14 4E 15 35 74 A6 94 BF 5E BA
 BD DF 79 5A F8 1C B4 6F 93 19 97 8F 89 A3 F6 C7
 78 05 23 F6 7B 16 3E F5 3A 5D B4 E9 1D A3 6B 41
 83 1C BE D2 84 91 B8 62 41 20 3E 7D 98 FF DB B9
 A3 42 0F B5 BB 88 16 E9 FC 8B F2 ED 6D 62 CC 5E
 A4 91 E2 9D BF 28 C7 04 71 8B 3F C9 BC 06 FA C5
 DE 31 81 2A B5 D5 E6 7B 18 91 9D BF D0 15 D7 29
 BF B9 72 E9 B9 1C 95 E0 E5 4E 38 DC BB AE B7 D1
 C4 5F 7B C3 7E 0C 3D 6B BF 07 99 E7 3E C7 E2 2A
 3F EB B3 95 13 43 4F 56 C1 50 9E 7C C5 D4 A2 AE
 BB FD FE 6D 46 AE 86 0F 1F F0 51 CC A3 C5 D5 46
 DC EF C0 1C 61 3B 40 24 BF 9C F2 35 77 D9 F9 FF
 84 5A FA B4 E0 B4 6B 0F 52 0D FD 54 BD 8F 2E 00
 47 99 8C BC 83 08 05 2B 73 7E 8A C3 45 F4 35 CB
 06 CB 9D E5 A6 55 50 98 4A 9C 49 9F FA 75 61 3D
 B1 D4 40 49 A7 EC C8 CA 23 02 C4 EA 0F EE 9A B1
 EF 45 F1 6D F1 81 7C 26 19 8A 0A C8 5D 29 A9 99
 CA 88 32 EB FC BA 77 BA 5D 27 75 DB 4E E0 27 B7
 3B 0E A4 E4 95 72 04 D5 9E 06 25 BB BE 8E CC E5
 18 A4 9E 15 85 5E 4D 79 7D 80 7A 5D 6A D2 BF 97
 38 27 8D F5 05 F3 55 5C 0D AB 7A C0 6F 78 16 3F
 22 8E 53 25 E3 74 C0 BB 0E E6 9C 6B 4A 1B 18 25
 CA 8F 1E C4 4A 84 D8 1D F5 B7 F2 D7 92 D3 B4 97
 92 92 A8 57 AC 81 6D 95 2B 7D 92 4B FC 79 B4 B4
 D8 D6 A5 02 3C F6 E5 8E E0 CC 53 F2 AB 43 9F 5E
 6F 0E 76 27 D7 1F B1 77 1D FC 38 1F 8E A4 3B 0E
 B7 5E 7C 56 C1 96 10 26 AE 2C F1 5A 5C 9E E7 52
 43 F7 67 20 F9 B8 B9 72 81 08 79 F1 7B 95 14 D1
 B8 09 48 AB D3 5C 06 CF 32 60 49 59 D1 D6 B2 2B
 6E 90 F4 3F E7 CB 94 95 DD 39 27 F6 0E 63 A9 F4
 A6 67 F8 5A 82 02 46 BB 78 DF 13 D8 38 57 25 B2
 2F 2D 1D FF 41 99 5B FB 55 60 75 10 E8 D7 73 6A
 A4 C3 77 FF EC 5C 64 4B B0 8A 05 BE A0 C5 D7 07
 41 F9 F3 88 04 9E D9 B4 FE AF 6D 3C BA 4A CC 7B
 FB FD C0 B8 EF 71 0F 51 82 DF 66 82 9C 2B 7F 92
 A4 C6 3B FB 3E 92 0A AC AC 9B 2F 8B AF 20 ED 5B
 4E 7C CD 7A FE C7 FC 4C AF 12 F5 6A 56 D4 2F 17
 13 34 0D FF D3 68 10 5E 04 E6 41 A6 07 91 73 F2
 1E 8D 8B 90 91 E3 CA 97 49 77 D9 11 01 E8 00 BC
 E8 E0 73 C5 F0 4E 9D 18 DC 50 49 16 A0 F1 3F 44
 7C 18 D3 85 48 D3 A7 E3 B7 8A 7D AE 98 0C 22 44
 8A 1D B6 66 23 53 87 32 23 02 F4 F9 8E 11 76 25
 96 F1 A6 66 7C 84 6A 27 8B 19 62 85 DB A3 96 C8
 05 14 6C 6A C9 55 7D 76 50 09 47 89 03 D7 93 C7
 15 84 F6 3A D2 38 81 5B D5 F5 DA 9B 07 A1 4D 13
 4E 35 E3 75 C5 46 FB 14 F9 DA 0E A9 36 FB FB 02
 E5 BD 1E 0C 58 61 01 30 FB 44 5C C5 E2 19 9F 1F
 86 41 32 79 15 19 44 75 71 D4 2D 9B 35 88 44 C5
 FD 57 C8 92 21 1E A6 84 05 0A 90 F1 86 87 02 1B
 91 65 F3 DF F6 5C F4 35 8E 3F 54 9F 73 DE 37 E2
 92 CD ED F7 72 A8 11 70 34 ED 10 54 19 EF 7E A8
 2C 56 A5 DE 62 9F 34 1C 6F 29 E9 15 89 E9 BD 07
 69 7F BA 5E 19 5A 35 83 25 58 15 03 D8 78 89 64
 4F 84 38 59 45 91 EF F9 15 A2 5D 3C 7D 5B 04 1E
 24 EC B4 88 80 B0 95 B5 59 CA F9 CE E4 2D 77 22
 70 E0 41 59 35 04 28 1A AC 88 0E 3B CB 34 02 D5
 D1 8D 8A 82 C9 4C 00 AB BD 42 39 BE 78 9D B9 A9
 FB 4E 30 CF 55 50 86 A3 1C 68 5D 98 FF DB DE 0E
 68 47 B4 57 00 15 DC F5 6A A1 E1 08 DD 51 04 B4
 35 E0 06 B6 09 5A 35 71 E1 0F 57 73 3E A0 3B B5
 73 DE B1 A8 A0 3F E9 FE 4C 13 65 B3 35 06 B3 70
 B2 97 1B 81 C8 49 B7 97 3E 92 22 8E 0D 1E A2 D8
 03 EB 9E 66 E5 FA CB AB A5 B0 A6 1F F5 12 D0 64
 C7 77 78 5D E7 62 91 30 43 5C 05 97 CA 52 9F F5
 AB CF 23 3E 68 5D 60 B1 B7 B3 B9 8D 0F 75 ED 13
 8D 36 C1 E4 45 66 B3 5C 2D B0 2A 43 2A FC AC 67
 33 E1 8A D8 EA 84 D2 4D 70 9A 2B AE A0 2F D6 31
 4C D6 7B 3D 87 0D C7 D4 34 7A B2 41 D0 D6 EC 60
 7F 90 D6 31 BE D1 9D 9A 67 C5 F2 5F 1C E1 07 55
 CE 0F C4 E8 A9 D9 5E 78 1E 5F 75 61 2B E4 FB 75
 26 8B 07 CD 8C 4B BD 82 35 10 5E 80 CC 2C C1 9B
 FB 0C DC 2F 33 5B 1E 36
* End 2859269400 1048956770