* LTspice Encrypted File
* 
* This encrypted file has been supplied by a 3rd
* party vendor that does not wish to publicize
* the technology used to implement this library.
* 
* Permission is granted to use this file for
* simulations but not to reverse engineer its
* contents.
* 
* Begin:
 72 9F D7 CD 36 60 F0 DF 89 F8 18 A0 91 63 D2 82
 D2 37 25 81 9C FE 1B 23 23 A2 A1 51 1A 51 26 FD
 4D 3D 99 DE 90 E8 23 0A 14 8A 6E 0B DC 1C 7E BF
 C2 2D 86 F0 EC 91 F1 11 74 D7 6A B1 C4 BA B1 8F
 C8 9F C5 B6 0B B6 AC F6 C3 1E 4F 99 AB A7 85 43
 F8 8F 67 11 59 0D C5 19 96 5A A7 CC AE 1B E6 8F
 45 5F 0D EF 9A AE 72 01 9B 23 8B 4E 0D FD E4 F5
 54 24 AB 88 33 BB 7E C6 A5 B3 85 EC 26 67 C3 2C
 DC 21 04 84 48 CD 72 3A BC 52 F5 89 F0 B3 E6 0D
 80 24 07 74 F0 C1 58 46 1A 76 CD F9 97 2F 5B 31
 52 75 6F A2 B9 78 96 A2 2B 89 4D 70 DF CB 8C 57
 8B F4 DA 35 F3 BA 94 6C 97 DE 84 D6 72 F6 9D C9
 0F 28 7B 20 36 94 59 B5 2E 4C 4E 7E A8 F7 D7 05
 83 01 BE A5 9E EE D5 21 2D 7B 0C 84 39 14 1A 28
 58 42 34 C4 72 18 62 0D 23 2F 10 1D 88 71 2B D6
 F0 47 A1 9C 6C 6B CA F0 CC E9 BB FD B2 FE 1D F9
 EF EB 67 32 79 25 22 63 F6 B7 1B C1 01 9E C9 DE
 6A FB 24 CB 59 19 A2 A7 CC AF BD 91 86 F7 2A EA
 CA 1C 5C DB 3F 69 74 04 E8 4A FD B6 6E 09 CF 3A
 E5 DA 35 07 C3 87 47 1A FC 0B D1 FF 79 05 D7 B7
 99 B9 13 7B 40 8B 1B FF 0A E2 C8 70 E8 6F 29 A1
 7B 28 28 36 42 CD A4 14 9E 39 2D D0 37 DB 72 28
 97 25 1E B9 07 BE 7E 20 77 8E 41 C1 3C F3 4D F2
 0F 2D AD 99 C7 1F 5A 05 4D D6 2D F4 19 1E 5E 00
 E5 B8 3E 65 7A 06 4B BA D7 C3 07 2A 27 F3 9D D9
 D1 A9 B1 95 78 D2 14 E4 9E 45 AB 9E CE 92 FB 0F
 A1 E9 D5 BD 7B A2 57 AD ED DB 84 03 D9 1E 11 51
 95 33 B9 8D C3 94 82 07 A4 54 31 CF 62 4D 0F 9F
 FE C0 ED B7 E9 A0 67 FF F5 86 E7 58 50 FC DD 41
 5F F1 13 12 C6 A2 08 6A B2 AE 2A 06 F6 72 99 6C
 81 FE 9A AB 78 BA D8 B5 F9 7D 27 3F 83 F0 05 A4
 79 DC 83 60 F1 24 2F 74 02 D9 25 BF 54 75 FF BC
 1C A6 1E 68 3B 34 60 7A F4 24 30 DF A1 69 92 5E
 FE D5 9B 12 33 66 31 34 B9 48 77 40 54 F6 9C 6F
 6F D0 14 08 76 C5 B4 19 2E 01 02 0F 7E 0B A0 43
 6C EB D3 E8 C9 14 7B 6F E5 5F D1 92 D5 B3 41 9E
 B9 B4 90 28 6F 44 1D 46 6E 24 26 FF 4F 35 CA DC
 BC F0 51 2A 3D DA 70 23 9D AC 41 F9 A6 AE 7D D2
 FD 1F 92 A0 53 1E 6A 48 84 8B B7 3C 8D B1 24 80
 B4 0B 74 98 1D 94 87 F4 21 27 EC C1 5A C7 9F 31
 EF 3C BA 4C DA 61 8A C1 50 85 2B 1D 43 9C D3 8D
 46 FB FC 2B A6 56 0C 36 9D 5A B5 7B B9 4A D2 E0
 77 55 01 CF 0B 16 DA 98 B4 F7 F6 E7 F3 62 3B 85
 51 EA 8C 58 41 15 BF 8C 65 C1 04 26 23 96 4A BF
 E1 63 0E A6 65 89 0A 4C 8C 0C B1 C5 AB 4E 35 EF
 43 25 EE 92 3C C0 80 C2 0B 7B 3B 91 A4 5B 68 7F
 0C 09 18 6C B0 11 A3 25 42 DD C8 13 9E 04 7C 8A
 FB 15 BF FF 64 6B 16 3C 20 A8 C6 C5 B6 06 B6 14
 4E 33 67 86 4B 39 99 7F 6E 70 91 FD 13 35 F5 08
 AA 24 09 84 E6 A4 7C 30 85 EF 4C 3C 57 0B 70 BB
 35 67 21 72 7A 11 42 2D C8 AB 33 13 32 23 90 67
 8C DD 10 D0 67 35 D5 00 37 DE FB D4 E0 B2 2C 61
 77 9D F6 C9 3F 91 DB 5B C9 64 F8 9E B3 0D B5 D2
 6F BD F3 8C 77 51 43 A8 6A EF AE C9 88 CB 4A 57
 F5 8A F1 1E 22 8D 3F 4A BB 06 09 2D 59 F9 56 FA
 22 D6 2B 7A 6C A4 B1 F3 9F 30 45 26 36 E7 F1 F1
 9E 82 93 F3 D2 1A CA A6 94 DA 61 07 4F 30 84 32
 8A C8 91 C4 5C EF 36 01 32 AF 26 FB AB 11 D9 71
 1D 38 35 4B 56 32 D4 2E B9 F1 A0 C6 4E 55 97 83
 A6 C0 D5 8F F3 3C E1 21 DE 10 65 BD 10 10 EB 3E
 69 17 93 15 C2 3A 57 8A B8 F1 57 67 45 58 7B F9
 97 D5 20 A6 0A 49 F6 74 A2 24 DA EF 4C EA F1 93
 8C 47 AA 31 6B D0 C6 19 57 89 03 4B 50 16 C4 29
 10 F4 44 3B 5B B4 86 6F D4 86 EA 68 6F 6F 44 82
 90 1D B3 3C 74 73 BA F7 99 06 91 24 41 7D DE FC
 DB 2A 52 AD 63 FF 9E 23 2B 46 33 37 96 01 1B 18
 32 31 3F 7D 0F 13 7F 70 76 C1 65 CF EE A3 98 EF
 66 A9 B6 6D 84 52 87 A9 27 C6 75 9B FD 00 2B 39
 FE E7 68 4C 82 88 28 B3 53 DA ED 8A EC 89 C0 58
 31 7F E9 CD 98 CB 16 C7 81 B9 7E 25 3C 9F 53 3D
 49 7D BC 7F 29 0D B1 32 13 31 B0 7F A3 6E 8D D6
 94 2D 01 04 BB 2D 0D 8B 03 58 F4 55 01 F2 82 9C
 BC FF 30 CB 06 84 12 CB 35 0E 79 A0 F9 02 0C 2B
 E0 C2 F4 B3 EE 8E C2 F6 7F 21 12 FC C1 38 9D F9
 1C 64 B2 E1 53 B5 0A 7F 35 C4 81 97 54 90 FC D4
 59 1F F7 5B 00 B1 C3 75 8E 2E CC 66 91 DF A5 98
 AA CB 8C 5E 42 D4 AC 81 72 17 9F 94 3F 25 69 F8
 29 35 F5 7E E3 79 7E 10 62 46 59 3F AF E3 FC 21
 F8 26 63 5C 09 33 0E 36 D5 CE 98 09 76 B7 47 BB
 BE 8F 9B EE AB D5 AA 35 3F 9B 49 CF 36 3A AA E6
 77 D0 B4 8A AF 2D 7B B6 24 E2 24 6B 57 F5 A1 BE
 26 D4 5E BB 16 E6 FF 8C 5A BE 4B CE E7 98 5F E6
 43 55 01 61 CE 1B 6D F0 33 38 F3 54 E9 F4 1D BE
 27 6D 44 77 07 BE 60 B0 4E 8F 63 44 F8 71 5C 2E
 22 3E 9B E8 14 B3 D1 68 95 D3 A5 3D 91 15 92 CD
 22 3F BA DD E3 11 6E A5 9B FB A0 85 41 F2 ED 60
 E5 98 8B 86 61 DF 26 C5 81 59 FB 4B 60 FE F4 14
 B9 C6 6A 25 14 57 75 07 95 F7 4A 0E 2B 18 BE E0
 33 C7 E9 2F A1 90 04 27 94 83 35 E1 F1 DC 24 6A
 FA 35 45 E9 55 E9 01 D3 35 00 CC BD 7A 95 D0 70
 4A F5 30 C6 28 C1 C6 AC 25 B7 AF 96 5A 39 E4 00
 5F 8A D8 7E 61 13 DC C6 E1 EC E1 C7 0E 19 90 83
 38 67 1F 1D 29 51 F7 10 16 29 78 3D 6E F8 F5 15
 E5 E3 D0 B7 E8 37 86 64 C0 F9 BB B2 FB F2 3E 13
 81 A0 57 47 FB 00 2B D7 03 13 FD 25 89 97 83 DB
 34 7D 43 76 B8 9B 77 79 1F 5E FD FC A2 6E 14 B0
 C1 42 0F B6 D5 2D 3D 11 9C 96 B4 A5 BC 78 42 70
 18 FD 25 4C EC 8B 57 34 7E CD 69 76 34 11 EA 9C
 59 F8 98 76 5D 96 81 9D F3 A1 E0 92 3B B2 E7 6B
 86 F1 51 79 E6 62 F4 25 F3 BB F3 BA C9 88 5F 0D
 DB 24 50 46 D6 AB 7E 2D F8 CF A8 90 24 43 63 E2
 5E 6F 02 2B 8C 38 79 89 8A 14 F5 71 06 74 D0 7A
 FC D1 35 EF 42 69 A7 6A 9E 65 60 6C 8E 20 6E DA
 81 EB 75 09 E3 96 B1 64 38 01 17 0B DB B0 95 CD
 59 6C 15 95 9A F7 5D 2B 18 2E 5F 52 7E F2 DC B2
 6D E3 DE DD 73 55 EE 13 B4 FE 0C CB D3 A5 38 0E
 E8 F0 68 8D C0 57 18 7C BC 48 15 3B 5F 53 DD 85
 DB 88 48 27 9D 70 06 DA E7 1E 3E B5 12 13 D1 77
 94 81 2E 44 52 D7 D2 19 E2 20 71 CD 57 B5 08 E9
 16 2A 49 20 E0 26 B2 8A E4 12 3F F2 F1 BF BB D5
 2C 6F 7E 47 C1 92 1E 25 AA 74 0D E8 8D 94 21 8D
 88 4D 85 AA 57 D1 D4 10 6A BF 74 77 6B 29 4A F6
 A5 09 F9 4C E0 2E 64 47 F1 08 8A 09 08 8A B7 B3
 1F 2F 70 7D E0 6D 01 42 23 BF 40 5A A1 38 62 68
 55 62 40 B7 C5 A3 ED 4C 29 EF CC E0 9F FD 7D 53
 E1 8C CD 86 53 CF 5E 01 B1 2A F1 7C 22 DE 43 5D
 09 03 3F A2 8C 5B 92 D9 9B 40 33 45 D9 74 DE 4E
 88 68 83 94 4B 1A 3B FC BA D6 C7 D5 36 DC C6 0E
 26 D9 2F 40 8A 37 AE 69 6B 46 E5 8C EB 60 0E 5F
 3F 88 6B B9 D5 1A 93 E5 F8 5A 48 BE E6 89 7B 72
 13 80 2E 8F E4 9C CC 05 F0 95 A6 09 66 7A 69 2B
 C0 95 F4 C4 39 01 C6 BE C2 14 3D 0E 85 48 C1 B1
 C2 C4 3E 6A 8D 64 95 2B 2A 03 22 5B 9B 3C F0 72
 3E 4C 39 6E 3B B6 11 3B 27 BE 37 90 12 2F AC D1
 21 8C C9 CB 81 29 AD 9A 96 A1 3D 21 82 7D 8B 9E
 1B 3C A7 C5 03 4A 37 73 96 18 87 4C B6 64 CB 84
 A3 1F 0D 80 69 0F 7F DD ED CB C6 AC 80 D4 B6 11
 1F 7B CF FF 49 4B 0C 18 C1 ED 91 85 FD 92 0B 79
 56 2A 52 AF 88 C5 25 D9 90 2C 10 7C 50 F3 41 8F
 51 EC 67 84 12 99 B1 17 06 E5 A5 A0 72 86 59 EC
 89 5A 62 18 4E 22 26 B3 98 38 1E 96 56 1F 82 05
 B3 29 80 55 A8 DA 71 A3 99 75 C1 36 8F F4 89 A9
 B6 F2 C0 35 53 04 61 FF F4 15 90 C1 B2 FD BE 50
 23 58 A8 40 CF 10 C4 93 DC 3B 90 FF 23 4F E6 B2
 78 08 3C BA C0 5F 77 5B D9 75 42 E4 A8 4E 68 58
 1D 7E EE 7E 96 53 84 7C 2D DA 56 0C 62 3A D4 9B
 9C 3C CF 0B 24 EF 20 2D C4 58 5D E0 EB 16 91 81
 58 41 D4 3F 87 B1 D8 4E B3 1F A0 D6 D3 A1 A3 E1
 60 DC 77 F9 46 2A A6 55 02 5A 38 D9 8C 2E 55 AF
 DF C0 CF EB 8E DF 18 5D 5E 9F 4F 6A FC 12 1A 4C
 97 12 38 F6 05 F1 14 31 32 7E 14 D2 F8 23 9E FF
 00 E7 85 9F 44 4C 52 C1 A0 29 08 73 ED C4 B6 F8
 76 E4 F7 46 FE 45 DF 9A A3 DE 7D 1F F2 A6 D9 6B
 5D 1B 0A 26 DE 9A 79 CA 7F 0A E4 AB 3D 55 9B 50
 6B C5 8D C1 59 23 2E FB 14 33 5B C5 66 02 A0 3E
 D8 98 2F AE DF 39 4C 6C 12 A8 F3 C3 90 BD 09 EC
 94 66 AD 04 A8 C2 75 5C 82 54 D1 CE 0C 3F D3 96
 4D 9E 55 68 D7 92 F8 BD B0 B6 71 07 EF AC 4D D9
 F0 C5 6D 4D 8D C5 AD 7C 4F 1C C1 55 2A C2 D9 AD
 38 EF BE 83 FF 4C 1B 8F 0B 67 77 B8 80 C3 54 A4
 61 D9 95 DB D9 82 48 9C DD AA 44 14 3D 2D DC A1
 89 DA F4 F1 7B 54 4A 78 FA 06 3F BD 11 0A 07 2B
 6F 6C 7B A1 B3 B8 55 59 92 BE AD F2 77 74 70 50
 1C CB B0 FE A9 38 DE E5 5A C3 21 69 0D 4F B0 79
 76 07 31 36 DA FD E7 8D A5 9B B8 9F A2 90 89 B5
 09 04 C3 D9 83 CB 88 E8 2A 0B 07 48 57 F1 3C 73
 C4 AB 69 F0 2F 5C EF C5 06 98 CB E5 67 B7 58 92
 E0 A1 EA 45 97 03 5E B6 CB 07 16 14 E9 E6 04 61
 9E 31 A8 9E E6 6F 52 3B D9 04 82 C9 19 5B 91 3A
 8C F6 08 C0 7A 8B 05 AE E4 12 C0 84 1B 9B 4C 4E
 AC 1A 29 38 1E 47 85 E1 52 49 50 30 6E D3 52 77
 ED F2 E6 47 5B 94 73 50 A2 3E 21 E0 78 B7 1F 23
 EC 71 19 37 63 DA 2E 4C B4 7A B8 37 52 5A 1A 13
 CE 5D B4 E3 22 92 10 1A 9D 9E B3 18 83 5F 23 3A
 E5 12 24 3A 50 6C 25 48 90 1E 2E CD 8D B0 F3 BA
 C0 5D 76 00 78 4E 83 5A 12 E3 B8 24 CB C1 06 23
 9B 87 E2 65 A4 1E 87 66 59 58 E2 15 2E D9 C5 A1
 6B 03 2F E5 48 0A DC 17 6C 1F 7F E8 27 15 47 04
 66 87 E1 C0 59 18 97 E2 09 45 95 5B AE 8E EC E6
 B6 09 8C 36 72 DA 0F 3E 28 63 D8 14 B0 57 7E 42
 78 2D FA 38 AA FC E3 DF 53 A0 AB A7 E6 63 70 0F
 9B 14 F4 7F 51 A4 B0 E2 DF E6 1A 53 E3 5F EA 4D
 B9 30 A7 65 88 73 05 0E 76 9A 47 20 4E 78 1C EA
 D2 B1 0A DB 1E 70 72 1C CA ED 1F A7 C0 DE 72 15
 68 37 40 72 8A E0 0F 74 3F 20 52 2E E5 3E 14 EE
 AE 6D 37 80 72 71 E2 67 CE 5E 01 34 DA 8E D8 E0
 C6 26 8C D5 86 2B DC A2 09 02 AE F1 6E 51 37 03
 6C 6B 35 9B 2F 78 69 E1 C1 77 B6 45 A8 53 C9 6A
 B4 FE 29 E3 5A 63 3F E4 56 23 15 92 8A 73 AC 64
 0C A1 63 33 5C AD BC 30 6D BD 7F 3E 36 B1 C8 C3
 CC F8 99 B4 59 DA BA D1 5A A0 56 BB 04 64 C0 5C
 4F CE E8 DA E3 F3 36 83 EE 2B 17 E7 AD 0B C1 B3
 5F F8 0E 8A 78 2A 39 0E 39 F7 49 36 C2 CF D3 76
 42 12 94 66 F9 D1 1B 2D ED 38 41 79 A9 83 0C F2
 38 AF 2A 3E 9F 04 90 83 7B D7 5C 49 F5 94 05 DC
 2E F1 A4 E9 5D 78 0A 5A D2 04 D1 15 36 BF D1 07
 AD 86 A0 CD C5 10 7E 07 13 2A 75 6F E9 32 18 DB
 45 E9 12 E8 CF 05 EF E3 07 75 1D 22 2B CC 78 5D
 F9 48 E8 22 43 DA 7E 14 C5 34 D6 F1 76 2B 47 6B
 BB 0C E4 0A CE C1 53 F6 0F 2C 6C 73 CE F4 5D F1
 01 94 CD CD 7E 34 C7 93 C6 35 42 4D 67 80 E3 6B
* End 1009384654 2968905827