* LTspice Encrypted File
* 
* This encrypted file has been supplied by a 3rd
* party vendor that does not wish to publicize
* the technology used to implement this library.
* 
* Permission is granted to use this file for
* simulations but not to reverse engineer its
* contents.
* 
* Begin:
 FD 8E 23 73 77 99 E7 FC 95 9A 5D 67 DF D0 EF 56
 C8 5E 47 55 B8 93 82 33 1A AD 61 A7 4D 0C 52 E2
 24 9B 3D EF 3F 65 96 A9 87 5F A0 A8 20 5F BD 6E
 EC 8B 6C C0 1C 8C B1 43 17 CB 57 4A 80 D4 C8 15
 4B 26 F1 08 5F 77 2A 10 39 AF 22 0C 1C CE 51 F2
 2D 99 61 02 9A AD E5 0B 42 59 36 B5 36 7D EA 35
 38 13 50 A6 58 7C 4B BB FE 86 A5 AA 33 66 82 3E
 72 A5 C9 33 DC FC 1A 1E 3C E5 C1 96 41 39 5D 12
 1C 8A 79 D1 A9 B1 9E A7 52 39 EF 4E C6 B9 2F 8A
 79 BD 51 0C B6 43 93 8D CD 16 D1 08 5B 6C 2C EE
 AD 41 3A D0 34 F6 3A 05 D3 63 D2 BD D8 3A 88 00
 55 AA 2D 1B 95 91 0C 69 39 15 E3 98 9F A7 E2 CF
 65 E3 04 35 C6 12 9E 8A BA 8C 1F A9 00 E8 B5 32
 A2 AA DF 75 1E A3 F7 7B CE 9E CC EC C4 33 49 A6
 62 26 D9 0A 64 1F 46 B3 0C 76 33 56 50 38 5D AE
 8D 3B B3 0B 28 4E FB CB 9F E2 05 CE 54 0A 07 6E
 8C 80 05 97 8A 1C 60 DE 5E C4 26 FC 7C 7F A5 AB
 C9 C4 CC 88 D7 87 0F BF 76 1E F6 34 88 8D 0E 87
 AB 5F 18 FC 0F 6D 33 61 56 AD E8 8A 05 B2 2C 56
 CC 03 3C 15 9D D7 C3 4E A7 18 AB 2B E4 1E D3 9A
 DA 0E E7 46 10 34 9A 18 D6 DE 66 E6 9B 89 92 44
 41 C1 BD 4F 93 CD C8 B6 5F C6 58 9D C4 10 DC 07
 D0 60 73 FB B7 E4 95 65 33 3E 26 A1 64 E2 A8 F6
 30 A2 0B FE 14 F8 D9 14 99 57 E9 BF 18 18 93 AD
 62 6D 1A BE 2D 21 26 45 09 FA 30 0E 14 55 26 23
 99 CF 47 0E D4 D4 7B 33 9B B2 66 D5 E1 24 C8 42
 45 35 6F C7 8F B4 51 6E 0D 8D 93 61 A9 1D 59 DB
 67 F3 3B E7 D4 12 71 5A 9E 5D 51 A4 21 54 74 EE
 AC 67 21 B9 6B 30 F0 EA EF 1B 17 BD 66 18 5D 3F
 0C 45 97 D8 BB 31 73 C5 D9 50 C1 8E AB 2C 2C 19
 FE 20 18 F0 2C EF 60 E0 DF 99 D9 1A B9 A7 FA 0C
 B6 B8 F2 90 7E A0 09 C1 0E 6A 5F E0 33 4E C7 ED
 6D 3A 39 6F 8A E6 B4 ED 46 89 57 F7 2F 09 89 47
 7D 86 1D 50 93 3F 8E 01 47 F7 0D 5C EE 06 09 0D
 FE 47 96 82 70 2A EE EE B3 11 B3 24 FD 52 5A CF
 B4 15 39 FC 77 6D 36 0F 12 F9 21 46 56 6A 6F 14
 4E 5B D1 04 FB DA DF 02 83 4A C4 7B 8B 7A 4F EC
 72 D2 91 0D 55 7F E8 E2 D5 78 20 F9 03 9A 2C F3
 09 AE 1E 97 90 EE 62 30 B0 FF 2D C8 2E 20 C5 6E
 09 92 C0 48 05 F0 2F B2 D7 37 A0 D6 07 39 0C 1E
 DB 5A 19 BA 70 59 52 29 9B 6C 2A A1 ED EA 1D 07
 1E 26 9E 8C B9 5D 7F 5E 0A CA B5 F1 A9 ED 06 90
 C1 AC E2 3C 4E DF 4A 01 A0 82 87 F3 99 0E 78 D0
 90 07 1A 9D 9B 12 44 A1 DA 7F FC 12 6A 43 5B EC
 88 6D 68 F2 E3 BB F6 22 19 A0 FE 18 D3 DA 25 AF
 74 73 F1 9B 5F 12 37 C7 38 E3 9A 81 A9 9B 24 19
 A4 46 B0 2B 97 7F 48 35 6D DC DA 2A CF 6C 3C DA
 84 21 1E 77 DA 33 3B B5 D1 76 5D E8 1F 69 5A EF
 C9 1F 57 16 AA 9B 5C EA E4 BC 35 C1 DA CD C7 A8
 39 4E AC AA 5E 15 9E 3A 68 76 4E EF 2A 42 B9 B6
 AD EA 99 DB 6C D2 59 6F 85 92 F8 BA 53 0F 86 3D
 DE 13 3D 99 76 1F 77 35 51 32 93 1A 22 A5 31 4D
 E4 B0 60 E6 6E CD 52 25 A0 4B 27 F9 44 6A 1A 47
 C9 BA 37 44 CF 99 A4 EA 63 F9 F0 EE 4F F0 66 EF
 32 A7 3D 6A 7C 94 CE EE 88 76 D5 C0 6D 72 56 F4
 51 8D 69 E5 DD 98 A6 7B 8B 3D 04 A5 99 3F D1 15
 70 51 8B 26 CB F2 BB C7 17 E4 04 74 65 20 79 92
 5A 7D 69 A0 9D 66 6C 42 29 1B 1F 6C EA BD 94 34
 44 62 20 5D 6B A2 51 D3 0E 24 69 BC DF C7 0A 7B
 24 48 54 D2 98 AB 8B ED 1A D4 20 9F 21 E2 C8 DF
 C1 3A 26 E1 27 D9 C5 F0 9F 6A 0D 63 40 AB 87 9B
 81 80 B9 91 40 5D E1 28 6C CD D7 D3 02 BD 64 99
 E1 4D D1 0F 6E 67 22 0C 35 6C 0B AC CA C9 6D 42
 A9 BA 3C E9 36 A2 A2 1E B3 A7 C6 D5 EE CA BF 43
 1A 29 21 B7 54 15 FA 34 31 2E BF 72 D0 9C 13 3D
 DC 6C CB 3F D4 42 C0 12 B9 C2 0F 3D 11 71 94 DB
 F0 13 46 6B 54 B1 18 B5 07 B8 08 1A 31 6A 0D 38
 C0 8D 32 60 6C 95 4D 5B 33 ED 34 5B 65 1B 9C 19
 D6 40 95 E3 F4 43 F2 F9 2C E5 97 E9 D4 F2 78 DC
 7A CB 2C 51 DC E5 FF 5B 13 4F EF 0F 5C 49 41 0A
 C0 FF B9 93 1A 68 51 BA 5C B4 63 68 B2 49 91 C0
 BB 24 D8 7D 25 3E FD F9 AF 84 9C B8 32 25 8B 5B
 8E D0 29 7D 97 34 44 F0 36 23 5A D7 85 E2 47 7E
 A8 19 FB B4 08 7C 8A E1 F3 AF 09 56 03 1C C4 B9
 9B 76 0E AF DD 6F AE BB 82 56 62 33 84 CE 3E 66
 DA 12 F2 2D 8C E1 83 82 2C F5 14 DA 1F 3C 73 47
 0B 58 0C 65 D8 E6 77 18 05 79 69 BD 28 81 E1 1B
 D5 D2 D3 AC B1 EA 32 C0 77 D6 47 4B 05 0C 50 A9
 ED 69 AD 07 1E 3B 26 25 AD EF 66 CF 7D 02 87 EB
 39 69 2B 05 AC FA 0E DE 77 9B E3 A5 1D 9A 7D 29
 EC B3 16 CA 3A DC 87 DE 2A 4D 47 55 A6 39 08 AC
 3B D5 B2 D8 A3 08 08 A2 75 C8 38 CE A1 69 1B D2
 64 0B 4D EA C0 B1 E2 35 F0 0C F1 F2 6F 2C D6 C9
 C7 4E E4 7A 1B 0F E0 67 B3 16 2A CF 57 37 8B A4
 61 33 BE 87 2D CE 29 53 C0 43 DD 30 E7 B3 D2 10
 03 5C 3A 7C C6 91 A5 B5 DF FC D9 7E 93 1A B0 B3
 2C C2 33 3B FA 38 48 37 BE D6 57 A5 11 36 6D 1A
 FB E9 C5 FB FE 79 85 F7 D5 77 EE C0 06 99 EF 6E
 59 56 D5 BB 35 E9 31 57 E6 E4 EC 35 F6 18 7D 5B
 27 8D 11 50 33 01 42 FB C6 0A BE D5 23 AD 2F 69
 02 6E 3A 28 EE D4 5D 86 F6 1D C8 C4 92 D1 62 0E
 2E B8 0B 9A 42 C3 93 20 A4 F7 CF DA 37 DB C5 D4
 8D 7F 21 26 5D FD 9F F8 97 EF 4F 8B DD 55 84 F8
 F2 A3 5F 14 25 CC CD B9 FC 53 15 4C B6 DB 28 72
 A7 61 85 45 C6 D1 FF 0A 54 C5 5D DE 78 C0 75 F7
 4F 48 4A C1 19 E8 53 CB 5E B8 5C 29 BF 85 24 AC
 2F 94 4C 16 BD 77 F3 EF DD 9B A8 BE D7 C7 D7 56
 63 F5 EE 8A 08 7F 61 54 51 5B CE 52 48 DD 08 DC
 15 3E 32 56 86 B5 6C 48 C6 C4 94 18 7D F8 23 22
 7B 6C E2 78 C0 28 22 00 16 E1 8D 95 BA 02 1D 37
 8F 66 99 9D 79 C2 EF CE 27 16 A2 E7 1D 70 B8 DD
 43 93 20 79 38 24 32 2B 6D BF CE D4 51 5D DC 6C
 70 05 76 91 CC AF 3D 4B 26 AB 1E C1 EB 2E 46 D7
 68 70 6A 62 30 C1 72 7E 4A 90 1D 16 F7 BA B9 CC
 80 03 10 D0 1E 88 59 72 1F 5E 87 A0 38 6C EB 03
 3E A9 74 13 72 63 5C 7F 01 BC 86 BB 83 0C 83 AE
 29 25 06 23 6A C7 10 6E 50 30 10 35 4F A2 8D B9
 B0 11 98 AB 82 EF 39 EC C4 31 50 34 BE 45 F8 99
 A8 4B 6E F3 8B 16 6D 38 D4 05 16 7C 98 78 6B EE
 D8 3D 2F 5F 20 BA 0D 0C F2 7F 95 44 28 AF 32 AC
 11 D4 BC 82 5E 51 91 CD C0 76 9A BB D9 F6 BC E4
 DD AA A9 28 A2 E5 88 F2 31 3F 0E 1C 8B EB 6E CA
 E1 A2 7C 1B 62 46 F0 EB CB 5A CA A0 97 5A D0 99
 58 8B 3B 32 EF 04 44 3F 84 60 5B A0 91 51 7F FC
 70 23 D5 29 9B F8 BA F1 87 90 C7 58 1E E1 8C EC
 24 0A 4B 72 76 3C AE 20 A9 00 83 1E 09 D7 A1 DA
 81 5B 21 F9 02 7F 69 9B 22 27 68 B8 8D D2 F8 AD
 1D D7 EF F5 E1 8A DB 91 32 15 71 4F 4F D6 D0 D5
 9A 33 71 3B C8 D8 8C 9C 0B C7 49 B8 80 05 C4 9B
 BD E9 0E 64 29 24 FE 9F 96 BD 6E 1C 40 AD 3F 54
 50 48 F8 4B EB B3 F5 ED 1F 05 E2 79 28 19 69 0C
 0E 00 A8 E0 8E 05 EE D9 56 1E A4 C5 EF 5B FD 50
 7D 5F E7 90 32 F7 54 C7 D7 E4 10 5E 14 31 42 8C
 50 62 1A 3A F0 B8 4A 41 EE 62 74 62 B9 5E FE B9
 E6 5A 44 89 71 FA A5 5D 83 82 77 BE 0A C1 58 1E
 0A 82 4E BD 9D B2 75 D8 DB 5C AE 31 92 0B 14 76
 1A 01 B6 5E 75 17 C9 E7 2E 34 B9 7D 33 E4 E0 D1
 CB 7D EF D2 C3 EB C4 16 65 59 31 F2 CC 35 A6 18
 8B 74 A4 E1 4E AC EE 5C 51 CA EB 7C 30 4A BB D5
 BA A8 39 2F 84 27 3F 87 A1 DD 9F 01 50 EC A4 6A
 25 3B CC DA 44 8B B4 6E 6B 1E 81 DC E7 26 DA ED
 3E B8 A5 06 62 3C 06 2E 00 15 F6 98 02 95 CF DD
 D8 A5 BB F8 A4 B1 72 5B CC 7F A2 9F AF 2B 27 CB
 AD E4 7C B7 98 B8 9E E9 A2 91 56 13 A6 DC 18 CE
 6F EF E0 9C BC FF 24 4D A9 C5 E9 CE 91 AF 5C 5C
 0C ED 4D 9D 9B CE D3 CD A4 62 3F F8 C6 C3 C8 55
 1B 17 79 57 7B 20 66 91 67 C9 FE 03 A9 BA CD 0E
 D4 DA DC 19 2B C3 79 38 C5 51 6E C8 E4 52 71 81
 28 A1 82 41 44 ED 8E 55 FF 77 F2 5A 9B A3 16 1A
 54 17 1E 62 2A 92 C0 AC D9 9D 7C 20 6F 71 21 75
 CC D0 E0 08 38 94 29 32 FA BB 3F 21 1A E6 F7 13
 7D F5 64 5D F9 EA 94 1A 6B 42 70 22 5D E1 33 6E
 B3 0B 81 A5 5C 64 FF 50 E6 3E DE 75 4D 05 85 D3
 F9 61 3A 72 CC 9E DE F1 B3 A2 DB 7B 10 5A 67 F3
 93 58 A5 60 87 D2 5F 0E 77 20 F9 AB 67 20 FD 98
 AE FA 3A 4E 52 C7 28 1E 4C 23 B6 56 DB 80 CA 36
 17 71 7D 60 E7 31 86 E0 D3 4D A8 93 39 88 A1 0E
 9C 41 EA 94 20 5A C0 14 2F 04 C8 AA D6 AE ED 56
 20 C3 DC 6B 18 DF 57 7D 71 52 F6 5F 13 1D AD 92
 14 5A 37 E7 13 54 92 E0 D0 2B 8D 1A BB 6D 2C A2
 80 98 C2 72 8F AD F4 72 06 3F 2D A8 92 14 A9 B5
 82 69 15 BD 1F 65 2A 27 C4 4F 30 29 90 18 00 D7
 46 06 33 63 F2 5F DB D7 5F 21 84 6A 5B 5C 75 D1
 1F 33 4F 1C 51 66 2F E9 8F 32 18 B2 56 3E CB 13
 07 39 39 F0 5B A3 60 EF 7C 45 6D DD 73 B7 19 C2
 4B 0D 1E 26 34 1C D6 38 47 C5 DC 3A FF 6C 55 FC
 32 8E BF 20 71 B1 CA 5D 38 5D 2A 59 25 B8 F5 87
 34 20 57 10 A5 D9 F6 B4 49 AB 6B 0C 7E F6 3D BB
 8E 35 78 30 70 90 71 E5 DB 5A B1 5A 25 F6 EB E7
 48 B8 E2 78 94 9E 7F 88 1A 7B F0 B6 91 91 C1 4A
 06 0E 4E C0 ED CA 04 6E 4F 58 94 D0 C2 C9 B7 BE
 4F 35 72 01 BC 86 12 2C D5 07 DD 5C 17 D5 66 46
 7D C7 9C 36 14 C9 90 30 47 4C 58 10 F8 10 B7 CE
 18 A4 78 97 B2 BF D4 EB 29 D3 2D DB C8 6B 7C 34
 7B AD 45 15 BC C8 21 BF 0A F5 EA C7 C9 22 67 28
 62 A1 6F 06 E7 8A E3 28 59 9E 68 8F 62 1D 88 2C
 94 49 64 6C 3C FF 28 AD A8 19 44 7E 2A 8C 1C 05
 B3 2A 51 F9 5E C9 4A 8F 29 57 6F 49 A6 9E 73 65
 70 20 83 FA 2A 13 B0 AE 35 87 26 95 39 4D 8A EC
 43 3A F0 1B 59 CF 67 DF B6 75 11 60 51 58 AD 70
 44 07 43 0A 94 80 35 D9 C0 C6 33 F0 F6 BE A9 F1
 9B 0D 69 5F 91 A0 E3 D3 87 5B 8A 7A B3 59 D8 60
 E0 D4 AC A6 AE 9E 99 E6 5D 9C E0 1D EC 13 16 3E
 CF AD 10 29 91 2E D5 32 F3 4A 73 5B F1 2B A2 61
 FA 30 A6 49 13 C8 D8 16 5B 7A 42 EA 67 FE 66 27
 36 35 26 C0 86 F2 FD 26 17 64 A0 12 02 8C 7A 13
 36 34 04 82 FF C3 58 1E A3 74 74 83 86 BE D7 FF
 E1 29 DF CF 0E A4 99 A0 BB B9 79 66 BE A7 CC 0E
 D0 B2 91 72 0F 64 23 E0 D5 53 60 CA 86 85 94 4A
 1F C1 2C B9 50 E1 8B 49 A1 A3 14 DF D9 97 2D 2B
 93 E2 33 54 7A 95 7A 06 AE 90 75 D1 08 76 98 AC
 2C D6 23 6E 45 D9 FF EA 05 70 43 D9 D1 8E 4B 71
 E1 AD 0D 6D F0 AE 23 1E 7B 31 91 2B 05 D6 57 F8
 3E 3B C7 2D 2D CC D1 0B 06 C9 D7 4C 26 A4 CC D8
 45 5E 74 BB 4B 90 78 58 9D 07 E5 4C CB 44 13 3F
 4C 77 84 05 76 A3 79 9A AA 89 A7 36 76 9C 95 A1
 02 B4 B6 69 5B 80 ED 9A 29 70 6F 26 73 6D D0 0C
 32 3B C1 59 11 53 05 2F C6 6A 6D 95 40 0B B6 8F
 1E AB 65 6A 6E 24 85 7C EB 02 65 F1 F6 95 FB 23
* End 2822754751 2831555915