* LTspice Encrypted File
* 
* This encrypted file has been supplied by a 3rd
* party vendor that does not wish to publicize
* the technology used to implement this library.
* 
* Permission is granted to use this file for
* simulations but not to reverse engineer its
* contents.
* 
* Begin:
 88 E2 9E 7D F4 1B 12 F8 21 13 22 FB 53 F8 98 40
 26 C8 A1 1F CE 2A 65 E5 39 DF 78 07 65 56 0A 17
 91 DB FC 68 B8 BA 2A A4 42 D5 6A 3F EE EF FC 46
 64 B0 6B 39 F2 D5 34 ED 3A 63 79 31 F0 79 A7 B5
 A0 55 B1 68 61 21 63 50 7A E7 5D 0C A5 F0 7E 30
 98 D8 5F 72 23 B7 F3 71 D7 FD DD 07 C7 D3 4D 53
 81 A8 71 C4 E2 8C 96 CF B4 58 74 31 5F A2 A5 22
 CB B3 06 F1 13 56 4D 6F FA 97 22 16 08 0E 13 29
 06 26 4F E2 7A D6 23 95 C6 E8 F1 61 F7 F4 6C E9
 A7 27 BB 1C D3 92 0E D4 70 A7 57 0D 03 A2 28 9A
 94 FD C6 06 51 D4 8B 0E F2 0C 63 92 79 77 AC 01
 E3 FF 30 9D 13 FB F1 97 04 19 62 E8 6B 17 B8 60
 28 20 81 17 30 04 5F 1E B6 60 23 4B 49 35 F7 61
 2A A1 C8 02 92 82 F5 F7 98 49 E5 EB B5 CD 23 71
 84 8D F7 60 71 F1 0D 17 17 D8 EB 85 E2 73 A1 F5
 8C 12 30 70 12 61 73 EF 8C 6C C2 C0 4C 33 EE E1
 D0 C4 7F 87 D1 81 2A CF B9 8A 29 19 FC 37 34 C9
 CC 81 EB 21 D8 AD 44 FC D8 51 7F A7 00 D3 C2 D8
 88 94 A8 6F 4B C8 75 7F C3 16 8B 9C 64 73 BC FF
 1C 17 4F 35 9B 9F A9 B2 A2 CC A5 70 A5 6D B3 70
 4A D0 45 DA D1 64 08 D3 DF B3 2A 64 26 30 20 B7
 F6 7A A2 92 4B 3B 16 3C 4D 64 6F 85 ED E1 C9 AA
 C8 A5 8A 90 89 0C 23 C1 BB 2B D8 4C 64 E8 33 C5
 31 DF 9F F6 21 0B EA AE E6 CD 9B 67 F6 3E F5 9B
 41 B7 FF 72 49 75 76 F4 14 6B 28 BF 46 A8 26 FE
 1D 41 F6 92 A0 B8 0B F9 83 8E 06 73 7E 6C 48 73
 D6 EF 36 0A F2 83 46 1E 26 EE 3A 69 B3 F9 E1 D5
 4C 3F 9E 71 45 B8 7C 72 7B 3F 0E F2 F5 DD 5D 5B
 4B 3E 4F C3 41 E3 70 0F 2C 9F 8C BC 6C 00 EA 08
 35 1E D6 58 F9 29 EF D9 EF 2A 43 A0 88 AB 64 DD
 1F 4A 49 C7 CC 6D A4 9B 55 1F C9 C2 27 88 F2 D0
 E5 B0 AF 8E 8A E9 79 5C 6E 8E CD 5B E6 D4 34 9E
 F7 8F 06 D4 AB 8E BC 1D 4B BA 15 D2 95 0C BB 0E
 30 F3 C9 86 6F EA 65 1E 26 67 03 89 D2 B3 9D 28
 5A D8 45 E5 2C 90 EE DB CE 84 22 B7 4A FB 6B 05
 B1 F0 42 27 F3 0E 3E CE 82 F8 B0 7A B4 0F BC D6
 AF 19 ED EB 77 D7 0F F5 B3 3A FA 7A 9B 47 5A 4D
 FB 3D 33 FB 1C 4C 82 78 2C 89 B2 42 9B 40 8C E2
 09 79 81 5E E9 41 95 50 8A C1 4E 0B 9B 72 15 10
 BC E5 0B B4 47 16 AA 14 A6 16 DE DE 96 76 F1 64
 77 07 C1 9D 77 46 CB 3D C7 F1 98 A4 76 C3 0A 27
 8F 8E 0D 0A 0C 96 68 BD A8 AE AE DB 44 C8 96 BB
 8E 88 09 FC A7 1F C1 DF FC 0C A8 DF 01 DD F9 37
 94 75 2E B3 45 89 14 F2 EE 95 7B A7 88 44 A8 D7
 2A 39 7C 2B BD 28 59 8C 57 57 38 9E E1 A1 34 D6
 6E E8 7A 1D 85 C3 74 F0 FC 50 74 5D 7F E3 AC B2
 C8 FD E6 58 E4 FC 07 6D 02 64 1E 9A 08 AE 7F 38
 B9 E4 F0 CF 4A AD 8F 56 26 52 4F A5 4B CA CE 5D
 F8 F4 1E 68 30 88 25 EA 23 9E 8E BD A3 DB BB 6A
 52 1B BE D2 09 B6 1B AA 65 95 38 86 3B B2 85 FA
 85 9B D2 65 79 D1 B2 D7 1E F4 17 D8 35 13 45 87
 43 0D 26 3B 5B 2C 2C 82 EC 35 28 A8 04 41 62 A3
 2F 30 6A D9 37 A1 EC F8 8D E4 38 19 77 18 06 77
 AC 59 11 A5 9E 07 1D 9C F6 2E FF AF D7 B6 4F 28
 1F B3 B5 9A D5 72 B2 8F 16 CA 7B 27 D1 19 1A 2B
 06 CC B8 1F E3 7B F9 64 C7 25 FD 5A 92 82 5C 60
 9D A3 A2 8B 73 F3 78 40 EE D4 00 6C 9C 86 21 2E
 6B 27 E8 2B 02 8E 2B 6D B8 DE AE 8D 66 11 3B FC
 BC 4B 73 E8 55 5A 4E F4 CD C2 4D 6C 26 45 7F 38
 D3 42 EC 1D 71 98 B9 BC 41 25 C5 0A FE F8 0E 4C
 6E D0 5E EF E7 E2 02 27 F3 AB F7 1C 77 E4 27 1E
 E7 D9 73 5C 16 8F 54 99 E4 9A 82 5B 49 F4 DF 5A
 C5 3A CE B4 6D 81 24 C3 DC 98 0E B8 39 BE B9 00
 5F 58 AF 74 B0 1C 98 06 26 62 A3 28 84 D1 49 51
 80 85 EA 0C 6B B2 1D 44 08 C4 FE 44 CD 9A EF A6
 ED C4 16 52 9E 4D E1 B4 BC 97 BE 41 C4 56 0B D3
 A5 CA C2 54 9B DB FF AB 3A 02 88 4F B8 AA CB 5C
 13 6E 1B 1E DB 9C A0 3A 9B 70 69 E3 99 39 89 21
 54 50 EB 2C A9 F3 C4 64 69 42 E2 F3 84 56 FE 5A
 3B C0 0C B7 84 99 10 D8 68 64 59 28 E3 39 97 6B
 C4 3D 62 FD 59 A1 45 EA 07 85 28 A4 2D 2D 54 F0
 45 4C 5F D6 77 96 79 4F 56 C9 6E CB 8D 4A 11 D0
 D1 C6 B2 9D FA 2E 02 D2 51 24 33 9C 25 25 EC BE
 5F CC 62 3E BE 57 43 49 99 7A F6 E4 C9 26 EF F4
 56 A3 1B 55 73 04 43 DA B5 2C A1 FD 73 0B A7 F7
 B3 3A 16 B8 AA A2 E6 B4 14 1E 3E C4 C7 65 E6 E2
 73 D0 F1 E3 05 5B CC 73 76 F0 2F 47 A8 EA 9C B4
 95 6C 83 26 3B 91 0A 2C 58 0D 0C FC 26 5B 92 57
 2E EA 09 B4 45 3E 0F 9F 29 15 2A 39 BD 35 58 4C
 6B CF AD 77 42 98 AB DE 9F 8F BB D4 43 32 A4 BF
 2D 92 3F 1E 1D 9D 01 6C B0 67 6B 99 75 CA 2F 66
 78 03 6E 38 ED 98 01 1F E6 41 83 E5 DA E3 3E E9
 B7 80 A7 BB 5B 59 76 07 64 D1 55 56 DD 7F 60 59
 EC D3 23 7A 54 87 89 79 7A 1D E9 B0 F2 51 DE 19
 82 29 82 C0 33 3C 91 3E 0F 81 7C 0D 57 AF 27 0B
 F3 24 52 62 4E 70 95 EA 04 38 8C 85 5B 5C FF 93
 D5 89 09 0F 13 41 ED 03 95 1D 4C 83 D3 CE A4 E3
 09 03 9E 79 F6 A0 68 E8 0B 62 36 BF 6E CE 65 E3
 E9 03 9D 45 BB BE 5A 5B E3 C8 9B 32 76 CB 01 77
 2C CD F3 5E 67 7C 4A 8A 4D 4B D6 60 9A 5B 04 82
 E8 1F 89 93 17 71 04 9A 03 2F 20 D0 B1 7D 65 23
 27 A8 71 80 2E 7D 1F 94 12 1C DC 4F 7D 8A 45 3A
 E7 80 A9 50 3B 1E D5 F5 D5 A9 BA 53 25 1B A6 E9
 6B 30 14 5E A6 3F 36 52 10 87 D8 32 70 05 68 CD
 B7 1C 87 DD 56 6F 2D 90 2D 75 C3 B5 24 98 70 E3
 B6 48 63 F5 C9 9F 93 39 D1 6B 03 1D 7F A3 52 18
 D5 BC 89 B6 40 2E 37 70 60 45 B2 76 EE E2 4A A7
 E2 C1 E3 0A 2A C7 8F 74 3D D6 16 52 62 DF 02 4E
 EB 85 C3 21 9F 2C 8A 78 96 9F A5 7D 91 64 7F E2
 26 2B 47 DB 53 EC BB 51 D4 63 37 6B 06 C8 03 47
 DF 98 17 39 A6 F4 A1 B4 93 7D CF 39 01 A5 AB 4C
 2B 97 FC 84 E0 D6 DB 4F 89 C4 82 49 4A 77 CA 34
 2C 03 F1 B4 A7 92 B9 4F 46 02 BD E2 33 41 2F 49
 3D 90 9B A8 4E 38 5D AE AF A9 98 4D E0 B6 05 64
 A0 E2 87 A5 70 D6 B5 CD 3A 1E 16 15 AA E4 11 EE
 32 90 F2 EE 36 F9 31 CD 17 A6 72 AD 2C D7 C3 04
 C8 4B A0 87 F5 DC 7C 99 AC 32 05 23 10 C7 6B 71
 D5 50 04 A3 0F 3D C4 EF D4 70 E6 9B 88 36 56 78
 AC 47 B7 C1 63 FF DD 6C 5A 88 07 66 17 0A ED DE
 63 57 55 A7 1C EA 44 8A AE AF CA C9 58 0C 53 32
 74 A1 F5 B4 8B 9F 61 74 A0 7C 4A C4 E7 9A 36 C3
 FE 6C F1 EE 3E 5F FB CF 2A 85 33 95 D5 82 82 F3
 9D 1F 8A B6 69 28 83 F9 D4 0A 00 4B DC 44 BB 2F
 99 02 84 57 9E 03 1C DD 86 CA 17 33 4F E3 4C C3
 C0 FF 78 F2 3E 4F 88 08 F8 D3 C3 18 43 EB 67 79
 BF 6B 1C 02 17 54 19 6E 93 DE 72 FA 81 45 FB 9A
 12 EF 16 77 04 5A AA D4 4A 76 58 9F 8D C4 7F E4
 E1 DB 3B A6 F1 06 64 9A 04 87 D1 EC F6 53 B1 04
 07 28 D5 D0 A0 C7 23 E9 D9 7E AB 5D 8F 7C 70 1E
 6D 74 3F 7E 6C 1D 5C FC C9 74 25 B8 F0 B7 03 B7
 B9 C3 38 E6 83 C9 EA F1 4B 16 3A B3 CD E1 05 F7
 5D 36 EF CB 16 E7 FB A5 2F C3 DE C9 A0 8D F9 00
 2F FD C1 6C EC 7A 23 38 54 00 32 40 F6 11 82 BD
 53 7E BE 8C 3F 89 7C 4D 1F 8A B0 98 20 D0 D8 EF
 D1 73 E6 61 12 54 E0 3D 85 AB 27 3B 13 4E 2B 65
 4A 83 D6 C0 0B 87 94 89 C5 0B D4 BA 23 E0 3E EC
 3C 92 21 B3 2A E5 7B 50 B9 5C 61 00 A9 C5 42 A0
 2B C9 95 D7 90 18 A5 15 90 08 17 E0 06 CF 92 3A
 E9 78 19 D8 7B FB 2D 4F 37 C6 CB 80 CD 44 54 5A
 F7 95 74 B1 0F 0D C3 5F C1 F1 CA 58 C0 6E 62 6C
 D0 70 F2 00 64 7D 8B 0A D2 4A 84 0E 71 88 5E 7B
 A4 06 50 41 F6 C7 C6 3A 3F BA DF 7B D8 99 DA F5
 89 E2 EB 9E 25 3B 1F C7 28 4B 17 A8 F1 B8 34 C8
 6F 79 4A 1A 0D 76 F5 06 4A D3 B7 EB 44 83 C4 E0
 A8 F4 20 C2 32 77 39 60 12 4F 23 EF 8B 36 00 E8
 A8 D4 17 C8 50 ED B7 30 49 CB 1E BB 08 A0 C9 8E
 3A D9 3D 0D EB DB 56 F7 C3 3D 33 E8 F1 FF BE 17
 BC 74 07 C8 62 78 66 D6 EB 64 2A 79 BD 4B CD EC
 13 3F 07 FC AB F2 BC 83 F4 35 44 4E 3C 60 61 90
 3F 14 5A 5F F6 CA EE F0 23 3A 0F 06 6A 1D A6 FF
 62 BA CE 0D 3A 51 B7 C5 4B 5D 5B EB 01 36 47 7B
 83 B2 EA CB A2 C7 82 8A 68 0E 03 61 8C 10 17 A3
 E9 02 87 33 97 0E D6 F7 81 BD EF D6 C4 DB 6A 78
 A1 9E BA A0 79 9A F9 DA 71 A8 9A 1B F0 FF 69 60
 74 F5 F3 D5 54 6A B2 A4 40 2B 17 B1 61 CD C6 E0
 FA 6D 5F F9 9D AE 1A F0 A4 3A 7A 62 07 F3 5A A8
 EB B7 A7 F6 98 B9 29 1D A3 3E C3 ED 32 46 F1 17
 8B 6B 8B 03 BD 87 F6 F0 E4 3C B0 CB 2D 78 D6 0B
 DB CF 96 E4 77 53 EE BF 06 FA 60 E7 52 11 B0 E4
 48 41 15 CE A9 F1 35 BC 50 4B 8F E7 04 60 90 3F
 AD 1D 19 16 7B 65 53 66 7A 62 C6 AC 4F E2 37 1B
 58 90 01 3A 23 AB 06 32 4D 37 BE D3 8E 05 C6 5E
 E9 00 25 41 E5 EC 6D 52 DE 52 E3 7C F5 9E CF 10
 2B FA 28 1E 27 D0 5A 1A 69 90 8A C0 ED 55 79 E3
 58 E2 16 1A 8F 3D 8E D6 81 1A D7 6C DE 69 B2 90
 D8 85 F2 5D CB 5E 0A 21 FA 99 C9 90 3B 54 6C CB
 A7 E8 6C 66 B8 7B 9D B8 E0 B7 3F 42 1E E6 79 D8
 50 6E 39 83 82 3B ED 43 6E 64 9B 49 CA F4 9B B9
 5C 14 9E CC AA C4 32 C4 33 FB AA 18 4D 36 4B 94
 76 17 14 D1 E1 36 67 05 90 E5 97 8C 68 EA 92 64
 21 3C 69 66 41 A1 A2 EC 2F 9F EE CB 23 3B 3A A6
 16 5A 3D D5 DA B8 5D 79 FC 81 37 26 28 53 13 C5
 03 59 76 6B 08 88 FB 40 E9 03 3D 1E B9 EA 80 23
 D3 4D 69 F6 DD 30 F9 FC 90 6A 8D AC EB 4C 99 0C
 38 B0 C6 95 F2 EE AA 34 C5 DF 0D FF F1 3C CA 31
 9B AC 12 65 D6 73 1E 2A 4D 70 CE 4E 7C 25 50 FB
 4B CC 57 65 DE 90 92 B5 A7 20 0D 30 0C 08 AE FE
 41 59 49 F2 B7 DE C6 63 C3 60 0C 45 93 E1 7B 73
 F9 C9 C7 2C 0F B9 26 DD E3 8E 7E F3 B3 12 88 F7
 64 3C 95 D9 50 D8 53 77 DE 79 98 6C 21 A8 06 11
 5F 3D 5F D7 69 20 59 2A E3 77 7F B0 C5 14 A7 3F
 5F CC BA C1 63 A5 06 B5 00 0D C3 59 19 81 12 7E
 2A 0B B5 B5 35 4E 4B B7 F3 24 87 4E DB 74 B1 63
* End 723297186 2531041662