* LTspice Encrypted File
* 
* This encrypted file has been supplied by a 3rd
* party vendor that does not wish to publicize
* the technology used to implement this library.
* 
* Permission is granted to use this file for
* simulations but not to reverse engineer its
* contents.
* 
* Begin:
 1C A5 3E EF 10 47 80 B4 12 09 54 B5 E9 DE F7 FD
 B6 FE 3A BD 64 BA 55 0B 8E 34 53 F8 8E 13 65 CB
 AB CA 38 6C 4F 1F 5E 5B 77 6C 16 6E 93 56 22 48
 32 B7 4E 1A D9 8E 2D 2C A2 D8 B6 F5 13 90 7B 97
 63 E8 1E A0 7F 91 77 A4 E8 D9 6A 34 D9 FD 72 27
 BF 4C C4 6B 5D CA 70 E6 A7 95 35 C4 7C 98 87 07
 E9 72 C7 07 0A B1 85 1D F7 A3 AF FF 78 06 80 34
 5C 0F 50 C1 B1 AF F6 ED BC 51 08 50 1A 31 57 69
 B7 14 EE 05 2C CA 9C 16 4F C2 87 98 AA 97 7B 66
 08 42 CF AA 03 DF 2B 2E 99 12 81 85 A4 8F 11 B3
 C6 CC C1 E9 A8 62 95 5E 16 FA C4 EE 80 BC EF FD
 37 53 44 2D 20 7B 13 2E BB 11 97 14 B5 FF 21 06
 7F 64 18 66 30 BC 0E 9F AB 95 3D 2E 1B 93 63 67
 88 82 62 B2 87 07 94 DD D3 96 8B 3D 7B EC EE 72
 A9 99 30 AA 12 C5 09 B4 30 CE 5A B7 F3 C3 45 45
 0D F1 FD F5 A9 9E 2E 02 54 EA AD C4 90 F5 A0 73
 A1 48 4D 9D 86 C6 0F B9 F0 08 E4 AB 63 B9 2A F5
 1C 68 FF 1C 87 A6 3B 13 C7 9C 00 B1 78 FB A0 EC
 D9 68 CF 36 58 19 14 E2 40 2F 58 DD A1 24 9B E7
 A8 30 B8 63 87 F3 99 E9 CD E9 7A D0 C0 E0 56 BA
 4E 67 3C C2 B2 08 94 DD 63 79 59 2D 0B 8A CA B1
 08 EF F1 2F 0F 94 68 EB 9F 88 C7 E4 BE 7B B3 AF
 FF 41 28 F1 BA F5 40 9C BF CB 43 5F 09 CD 33 96
 3E 25 E7 1C 00 D2 4C 8D 18 8E 02 44 6F B2 5C 58
 DB D4 BA E2 FD 65 93 93 D7 92 54 9D B4 27 30 7E
 23 34 4C B7 ED ED 9A 2E 33 E2 7D 6A 89 D4 34 C0
 62 47 C8 5D 3D 1C 58 56 D9 48 83 C6 2D 97 5A B4
 E1 CD 55 63 9D 6A 94 A2 9A 11 97 E6 54 AC 95 09
 E1 AF 3B 9C EA 71 B1 DE 93 3F D8 55 B7 A9 10 2A
 BC A9 FD 3C C9 3B F2 35 ED E9 7A 8A 5E D1 1C B2
 7B 20 E5 61 AF 5C 2B 8B 70 13 42 F1 5A A1 8D A0
 30 80 48 AB 31 4B CE CF D7 25 C2 E0 FC 6D B9 5B
 74 FF 5F F4 07 FA FB 2A F2 01 5C B3 4F 80 65 E0
 26 E8 24 DC 64 4F 2E 43 2D AD CE E8 17 70 F7 39
 B6 8B 6C 93 C8 31 47 A6 9C E7 8F 9E 6F 8B A2 9D
 EE E4 AF 59 23 16 CE 90 9B 19 5B 5A A4 A6 F7 E2
 71 5A 18 D0 86 1C B7 32 2B 3F 10 63 B9 5A 22 1E
 5E 3D E1 46 07 78 D7 D3 1B F0 93 AE 2F 0C 08 AD
 67 49 DD F5 E0 68 42 44 CF 83 C1 A4 BC EB A9 95
 D7 41 68 45 BB 9F DC 6A 8E 0D 6D FA 14 16 AB FF
 EA 88 B7 92 C4 18 30 B8 24 69 CC E0 E4 B9 72 D7
 BA 58 A3 F1 C9 E2 09 B4 31 28 C7 2A 6B 66 42 48
 FC 02 D0 52 72 C0 C9 71 0D E0 71 B0 C5 F5 79 55
 7B C9 26 B5 01 C3 0F 13 10 CD 36 45 55 B2 5F 6D
 D0 61 EE 1D 67 6F 5D 2E 16 B1 6E 0B 10 7E 7F C5
 FD 3F 91 3D EF 6A 6E 04 25 F6 34 04 E4 75 3F 6A
 53 EE 2A F6 02 3B 5C 9A 20 CC 1C 57 09 36 3B A1
 04 50 D7 3E 9A 25 15 42 19 AF 5E 7B 74 A6 62 4D
 59 5E 37 0F 5C 63 F9 0D 26 6D 72 2F E2 F2 24 AB
 22 23 6E 10 A7 8A 7F 23 4B 3A 97 ED 65 B0 59 47
 A6 13 E9 74 41 CC 92 3E 3A DC 99 4F AB 27 35 AC
 D7 F6 2C C1 0F E0 6B 68 10 60 D5 F9 A7 66 40 03
 42 B8 6B 0F 9C 1C 5F F3 D2 B4 DF 7A 66 45 95 41
 9F 44 0E 4C E0 F9 A7 CB BB 15 C4 34 22 F6 85 2C
 1C D7 E4 70 72 79 4F A6 FE 35 14 6B 30 66 B5 A4
 A4 46 B9 88 A9 EF 79 AD F6 56 26 2E 2D 88 9C 0C
 B2 33 D2 A0 DE 3C C0 35 90 86 57 94 A9 B3 04 37
 94 51 A5 6C 10 C5 AB A4 CE 0C DA 3C 4A 6D 6A D6
 3A 18 06 E0 D4 C7 E7 65 B9 90 A9 C4 2F 54 71 F2
 E9 FB 6E 8B 46 4E E6 26 E8 ED AA AE E3 58 3E 4F
 64 41 C0 42 AC 0A F5 BA 72 34 CC AF 28 08 85 B5
 42 86 C4 E6 E2 D7 0A 7E 8A 14 3F CB F8 AF 2D E2
 DF 1B 84 5A 84 06 00 85 15 DB 90 B7 44 BA 18 02
 C5 A4 1C 7C 8D 7E EA 91 15 8D 31 46 EC CF EA EE
 F9 3E F0 E4 A9 C3 4C 20 17 AA E1 53 6D EF D2 53
 AD C4 2E 8F FA F7 B5 8D 22 DD FF 85 8D A3 85 40
 AF 0F 87 71 A5 BC 90 86 28 CF 24 B6 3F E9 39 F2
 5F 7D F7 D4 38 BE 4D 86 A3 30 3D 1D 46 85 30 F3
 27 14 4D 99 EB 46 B4 DA E5 0C 38 DA 8F 09 16 CC
 15 D8 6D 48 72 CF 29 2C 2D 0E 4D 83 9F 61 87 86
 75 DF FE 76 CB AF AF AE 5D D6 89 30 2A 4A B2 19
 33 45 D2 2A 68 EC 19 5D 11 3C FE DC 5B BE 7E A4
 75 1C 69 39 02 67 F0 83 C3 23 89 41 1B 83 01 9C
 27 94 27 88 8B 8C EF D5 BA 2E 51 D1 5B BB 56 EF
 4E DE 46 23 3D 2C 46 C5 C3 1B 61 5F 2E B8 22 39
 1F 0E 58 A1 41 80 F3 28 70 30 FF 82 BE B2 5A 8C
 D5 D8 9C 09 4D 61 B5 87 9B 71 EE CB 14 EC 2F 7B
 76 11 57 CB 55 0D 20 3D A7 7C AB DC 34 45 2E 7A
 A0 3B 03 90 92 94 CC 65 D3 5A A7 14 73 32 FC E4
 09 68 21 FD 32 5D C5 D1 1E 51 ED F5 4A 52 04 E8
 B6 6E B6 54 A6 13 5C EF 6D FB 97 18 0B 94 02 D1
 C7 70 7D 15 30 AB 78 91 DA 3E 83 0C E3 DC F9 DB
 B9 D0 57 4A FE 15 96 52 90 AC 55 A8 41 9A 7E 43
 11 FB 31 95 F4 B8 E0 61 35 E0 A9 50 76 1D F3 13
 A7 19 B0 1E D3 32 CB C5 1D 9D C7 26 16 60 32 3A
 D9 71 3C 94 98 36 88 19 E8 E6 3B CE 5A CF F0 FC
 F8 2D 70 A9 A0 C4 E0 18 B5 1A 36 68 49 62 E1 1B
 6D 4C 39 F2 19 78 5F 6C 60 24 17 C1 05 09 8F 45
 4E 2C 69 87 9A 34 99 4E 3C C8 75 0B 7F 45 B2 9E
 AD CD B5 BF E7 11 60 40 AE 5B CC 07 03 A8 68 7C
 4D DF E4 85 90 8E DD 9B A2 21 41 62 68 4B EF F9
 80 B8 84 B4 0E 0F F0 AB AB EC 95 26 28 67 BB 9D
 FF 75 62 BD 6D 78 8A 47 52 C8 94 A5 17 12 25 9A
 62 29 17 3F 36 A9 A2 3C E4 50 F7 A2 7D BB 78 CF
 57 20 78 DF AC F3 87 B9 91 35 F3 F8 77 2A 14 D5
 1D F2 75 10 A5 A0 0D FC D6 54 2A 27 94 8F E0 6E
 C7 15 F3 D3 89 ED 90 94 12 4D B6 0D B1 33 15 40
 56 21 B6 38 68 8A 6A BB 9D 05 5F 47 72 58 F1 AA
 CD 91 4A 19 46 6B 14 E0 E8 BC D8 FB 25 C4 88 1B
 48 50 C4 A1 F4 C7 85 B6 E4 02 10 0B 45 72 70 D1
 FC 5B F0 07 9F 59 CE 2B 02 32 34 1A FE CD DA 4C
 94 99 41 BC 6F D3 CC 32 5F 5E 00 88 55 59 AD 55
 CD 71 F8 51 F7 86 F4 09 42 D3 6B AE 28 F3 4A 4B
 CD 05 FE 20 D0 83 5F A4 20 D2 92 7D A2 BE C8 2B
 19 D6 99 57 98 DA 6B FC 23 8B F1 22 8B E7 6D CE
 75 0E 1C 6C F9 67 0B A6 24 36 5F EA B2 12 D8 A6
 E6 4B CC 03 45 51 F9 9D 5D B5 FC 84 0F B2 88 B0
 82 58 BF 97 D1 9E E0 A6 1D 6F 2F 18 67 A1 2B 52
 10 A3 B6 4A 92 46 C7 9A 2E 5B A7 2D B3 06 DC 3E
 B3 3A 31 A5 15 B1 BF 18 24 94 D4 BE D3 19 32 51
 AF F7 75 2C F6 72 C5 44 BA 92 70 39 90 3D 38 D0
 21 E7 59 36 E4 9F E4 62 43 71 EB D9 66 DE AD E8
 93 44 38 45 75 33 B8 91 18 50 3E 1A 67 C7 69 40
 D4 9A E6 65 F0 F9 B3 0B B5 4F 99 B3 10 30 FB F0
 D4 98 75 C3 07 2F F1 F7 68 57 26 F5 41 D6 84 D0
 49 13 F6 87 BB C0 8E 8D 95 4A CF 5A 04 F6 C2 F8
 AF 23 E6 B2 08 8D 51 CE 65 B4 45 B4 51 87 4F A3
 23 EC 5F 75 19 E6 7F B2 76 28 D1 7A BE 36 D7 57
 99 44 49 D6 31 6E 8B E2 69 51 97 FC C1 DE 6B 1C
 C4 F8 C3 D2 71 F4 F4 1D 35 96 0F EB 2D D8 5E BD
 4D 1B 0C 2B 51 04 D7 8C 7D 18 3A 10 74 62 DC 26
 CC 2C C4 28 A1 57 F1 3E 44 4D E2 CE DE F3 26 A7
 53 9B A1 F9 51 25 6F 85 7E 7D E1 01 8F 85 5D 34
 6F 1E 02 AB 01 88 79 A6 9E 23 91 F9 D5 F7 BB BF
 43 30 E0 6C 26 19 81 38 44 18 C8 56 60 27 DD 6A
 01 8D 5F A4 16 2D E1 DF 4F AC 47 E2 5F 32 FA F6
 A1 D9 7E 5A 70 51 13 50 90 86 36 36 AC B9 AC 1D
 40 38 0C 4F 0F 04 73 B9 4C 34 8B B5 51 C3 E8 BA
 B5 2C EA 5E B6 6D AC BC D6 D3 E3 CF 23 F6 C8 90
 CB 87 FD 21 76 B0 2D A8 88 DA 25 71 FD 35 5D 73
 CB 23 1B B3 33 E3 A7 0C 99 F2 01 F5 CA 44 AF A8
 90 A4 6D CA 89 02 3E FC DE 94 B0 D7 BA 8F CF 9B
 F1 F8 6D FD 8C 99 7C 67 AB 9C B3 80 30 21 D8 11
 C2 F4 57 13 F7 6C 05 D7 36 4C BD 61 17 81 F9 87
 FF 9A 2C 64 05 3B 9A 58 B5 31 B9 2B 28 D0 2A 08
 A1 1D 12 0D 14 B9 AD C5 C7 C4 77 4F 5A 28 D5 B2
 7F B7 A2 7E 39 4E 8A 57 78 BF 56 C8 C1 D9 A7 8A
 D8 72 01 F3 C1 DF 11 6B 40 C3 54 43 69 9E E8 10
 8E 6B 6D 00 AF 9B 5F 95 B6 57 A5 3A 03 81 12 37
 92 3D 16 3C 61 AA A3 1B F2 67 E0 20 08 73 8F F1
 D9 0D F2 6F FB D2 B3 0E 90 B5 47 45 8A EF F8 ED
 E8 83 8C 1A 70 4C 62 CA 38 DF 25 D9 81 D0 95 DE
 5C 17 D4 C0 80 48 D8 29 39 91 26 39 24 DB 98 99
 DC 9A 37 8A 31 DB 97 42 35 1E 3C FD 50 02 CE AF
 6B 69 10 46 E8 0D 1F E8 7A 81 82 90 82 90 FF 50
 1F 60 B3 F8 72 26 63 25 2F 76 9F EC 99 8F 5D 1D
 C0 32 0F C8 68 BB 09 9E 08 9A 28 65 3F 42 D3 FA
 E2 6C 3F 1C 91 DA 8B 16 6C B4 DB 70 6C A1 01 A7
 E3 CD B6 18 02 FB 3C 8D 65 FB 6D AF 2D DB 4C BC
 44 4B 25 57 96 98 0C D9 FF 8D 88 DB F7 E2 EF EE
 6D 5F 14 9F F8 56 FF 9D 55 E6 62 C5 CA 7B EE 35
 76 53 E6 E4 B2 83 DE F5 2D EB 28 54 F4 A4 3B C4
 73 0C 9E 64 85 7E 8C FD 26 CE DA F2 46 A9 FE 8B
 D0 13 A8 F7 1F 3C 8A 77 B8 91 D3 28 86 A8 2F 6D
 BE 6C DB CB A1 02 D8 8E 1D 55 A2 01 F8 64 A6 11
 17 70 10 F5 2B 5C B9 58 6E BC 07 10 91 D4 81 BE
 FE CB D4 57 A9 1D 64 CC 4A E4 63 9B 3E 10 B7 05
 7E 50 DD 47 20 2D 7E 5D 24 E9 89 61 60 C2 4A 0B
 21 17 D3 A5 BA 21 EC 0C 40 C5 33 0F AC FE AF AE
 68 2E 14 72 FA 9F 2C 41 74 9B C7 CF 1B 87 85 1A
 9A E0 B3 C3 59 87 D8 53 CD EF 56 84 59 6D 63 77
 6A 6C 38 63 78 D3 6F 28 D6 26 60 E9 4B 2C 01 9A
 46 81 BD 5F E2 96 00 21 D7 AC D3 EE 8D D2 64 95
 E3 08 52 4E 5B D8 34 15 17 CB 53 C2 B1 10 6F 74
 E0 B1 5D B2 35 4C 74 9E 3E BD 72 00 29 1A 8C FB
 BB 26 2A 20 3F 96 DE 78 7C 99 D9 6F CC 3D 7D 4A
 B8 52 B7 42 1B 65 31 2F 9A D6 57 D9 6F AA 04 A3
 7B 85 2E A3 9F 95 02 B5 5B 8F 91 0A 16 C1 FF DD
 8C E8 B3 40 5D 57 89 AE 2C 81 06 A8 43 0B 94 5F
 56 A4 C9 7A 95 59 7B 8B 9A 51 FB 19 AE 3C 92 A8
 32 74 42 D9 B8 A1 3E 02 DD E5 A5 4C 76 A9 03 75
 E9 47 B4 0B 7A 6C A6 33 53 B1 3D AF 8C FF D2 B1
 E6 A2 CF 6A C8 C7 7D 4E B9 28 CE 08 AC E8 31 5D
* End 3364302862 248331355