* LTspice Encrypted File
* 
* This encrypted file has been supplied by a 3rd
* party vendor that does not wish to publicize
* the technology used to implement this library.
* 
* Permission is granted to use this file for
* simulations but not to reverse engineer its
* contents.
* 
* Begin:
 14 94 6B 76 0A C2 C6 9D 1F B2 2E 0B 43 B1 66 EE
 C0 73 CD DE 32 E2 D6 83 68 60 E3 7C 76 5F C5 AE
 E0 DB D9 50 BE 1D 67 9C 5E AE 17 5E 70 7C 74 9C
 A0 D1 63 08 4B 7A 9A 73 D5 8B FE 39 81 4C F5 F7
 EA 76 60 38 9D F3 7A 7F F7 E7 51 11 7B AB 27 A7
 CE 2F B7 F7 BA E0 F5 68 CE FD 11 2A 6B 08 F1 FD
 4E 3F 99 F0 3A BD A1 95 18 FB E4 D5 B9 12 95 98
 51 C3 A4 53 00 A5 EE 18 AD 4A EF D9 D3 BD 9A 87
 18 45 C4 69 44 40 2E D2 38 5D 87 1A 9B 7F F6 EB
 A6 E5 3F 8C EB A9 14 0B BC 01 21 32 4F AB 78 79
 54 55 C1 10 08 EE 9D E3 BE 48 5D 51 31 75 E2 02
 05 85 B7 34 D9 BF EB 9F F1 1B D0 B1 F0 F4 EC 64
 4C C6 61 1B 39 B0 89 38 31 EA B9 74 3C EB C4 56
 1C 87 F4 1D 24 F4 1D ED 66 99 5A 04 C1 6E 38 FF
 E9 17 45 B1 B4 07 4F C5 72 4B 86 4A 07 82 10 64
 52 A5 89 3E AF 86 7E D5 B0 74 B7 12 58 21 26 14
 B8 F4 8C 28 44 80 40 84 11 CA 26 30 DD 45 35 D1
 88 A7 04 82 55 C6 58 99 1E 53 BF 13 5C E0 2C A2
 C8 B9 F8 22 03 DA 87 E6 AF 70 3B 29 4E 8C F0 D1
 C2 BA FB 3D E7 14 B4 F5 2C 87 FB 76 01 36 1A C0
 D5 78 17 C8 7E BB 2D 2D 79 77 37 B2 ED 35 06 EB
 A2 6B 3C 4F 65 DF C9 16 3F 0D AC 40 D1 D6 B3 A6
 D7 2E 7A 3B 2C 62 02 56 77 2B FB 98 B7 49 1A E4
 38 70 BA 46 5B DC AE DA C4 4B 60 2B 34 61 FC EA
 A5 28 DB 84 A7 29 9E 5D 61 F3 C7 0F 1B FE 4E F8
 DE 9A 25 5B 7C D3 BF 06 1E 80 F9 06 E3 0B CC 0C
 58 FC 3E 3D 86 72 40 1B 3A 9E 3E 8E D5 41 0C C5
 06 84 0C 9A 38 BE 15 8A ED 82 AA 05 4C 84 B6 0C
 09 DC 90 3B B6 50 18 4C 56 44 F4 14 1F 7C FA A8
 88 34 1B 2D 40 F0 82 68 12 1E 54 C8 DC 1F 09 DA
 CE 22 14 BC E5 D2 80 8B FA 9D 2D DF D1 A2 9D 56
 0F A2 3B BB 53 21 B7 81 19 68 66 D8 97 A4 E2 F5
 93 6B 0D E6 FA 27 69 E0 F0 14 AE 85 8A 95 5E 67
 8B FF E2 5C 70 CA FD 37 A2 DF 15 B2 79 8D 7D 2C
 05 15 F1 B5 CA F9 9E 1D D8 93 78 20 8A DB 5B F9
 A5 9D B8 55 EC 8A 8E 30 3D EE E0 69 6D 2D 53 E0
 CA 10 D2 A4 93 D8 77 AC DD 9F 67 ED 19 F2 99 AB
 06 B4 50 D2 C2 00 F0 19 03 E4 A6 7A 13 6A 9B 64
 03 58 D5 74 74 C6 AB 1A 4F CC EB 36 86 5D A8 2C
 48 00 37 8F 55 F7 71 ED 0C AB DB 4B 46 C9 0D 56
 98 C9 79 5A 12 9A B6 B1 B9 8F 05 A1 8C 96 F5 D1
 A5 3F 38 CE 21 8F C3 7E 8C 46 6E EC C9 55 49 D9
 01 62 06 A7 15 17 A9 6E 76 04 BE 4F 8A 21 CB 3C
 39 92 58 86 79 77 A7 15 F6 04 AC 86 8F A7 15 F9
 3E 6E DA DE FC 47 06 5F 3E 86 CD 5D B1 FF 9B 64
 D8 78 BB 0B D0 B0 AF 88 C9 06 32 72 DF 28 9A BC
 E6 85 F3 81 B3 5D 90 70 FE C7 95 A4 EE 5C 79 B9
 3B 8E 21 80 41 29 08 4C 3F 47 6A AC 5E 6F CE 0C
 43 56 72 6E B1 AB 1A 21 B8 D7 9E E1 01 99 4E 43
 90 A9 CD F3 A7 1D 80 D6 82 21 9E F3 44 C3 A4 73
 1A 69 E7 8D FF 95 1B 3D FD 25 28 B5 B6 FD A8 0A
 C1 8D 3F 6A F3 1C 86 79 45 F2 8D 7C 10 D4 1A 18
 F7 E6 77 F1 AE 35 95 63 C4 F3 C2 3B 05 AC EE 39
 A7 8A C2 43 16 91 1E 2B 72 4B 7C E1 39 CB 42 AC
 9A 6C F4 AF 1B 9C D8 9A 6C 14 86 B7 E6 FB AE FC
 04 6A E3 2E 4D D3 87 ED 8A C8 E4 6A CC EF 69 11
 77 CE B9 9B BF 94 D9 E9 31 20 AF 80 11 3A 16 E1
 60 2E C9 6A 5D 08 63 EA D9 72 FC 2F AC F1 55 1F
 79 35 53 FB 19 AC 18 A1 40 5E 2F C7 7F 32 86 BB
 0C 1D 0C 44 22 44 4F 76 79 A5 8D C1 54 EC 1E 44
 03 A6 98 80 A9 6E 16 C8 6E 83 B0 3D D3 8F 7F 86
 00 CE 74 80 5B 2F 58 F1 08 89 16 00 FA B1 E3 6B
 18 00 41 5B C1 F7 F2 F8 5B 7A A7 E0 D9 C0 2F B9
 6E 40 6D C5 1D B4 62 AD 24 F5 E6 29 D0 6A 98 5D
 60 BA FB 3A 41 4A B8 58 A0 64 1E FC B4 14 FA 08
 E0 E3 DC 01 0C 84 19 F7 C4 4C 94 BE 48 9D 6B F3
 20 C5 8E 5F 41 42 35 5A 62 97 53 CB 1B 0B FA 4E
 3B 51 7A AB AE 97 A1 C2 C8 A4 75 D8 B9 17 89 5F
 A1 77 B5 52 CD 1F 64 F2 33 D9 21 1B EC 23 51 1B
 7A 48 97 4A F9 89 60 EE 24 5C E2 0F 30 8A B0 A9
 D4 6C 80 2E 23 E6 D5 8F 82 FB FF DB 99 5D 83 5E
 28 76 7C 2D DA E5 CF 26 09 13 A9 A8 23 7E 5A 80
 08 13 D0 90 19 77 87 37 E6 D0 0C F6 C1 8C 54 A7
 1E 7E DC 27 3B B1 FA 4F C6 E9 2F F6 49 F1 FA BC
 E8 60 2A 88 72 C3 E9 CE 66 8E 54 46 B7 45 0F C5
 3F 60 0E 39 F4 EF BB 2A 4D 7E CD 14 27 B2 BF 81
 17 B1 56 92 AD F0 25 51 CF 9B 34 9D C5 DE 89 87
 97 47 49 3A 33 05 94 1B 93 E1 B5 E7 72 FD CA B3
 E6 6F 74 07 47 00 BB F3 FE E2 E7 64 AC 4F AE 28
 FE 11 F2 4A 94 90 39 FB B3 89 E4 94 FE FF ED 26
 1C FA 31 66 EA EF 4C 22 F1 4F F6 EB 28 B0 8C 2C
 E6 CE EB 3B 65 B9 F8 3D AB AE 37 14 BE A5 1F D7
 2F C0 EE 42 2F E6 EB A6 BF E1 E3 33 39 53 ED 06
 EE E8 A9 4C 7C 64 EE 2D 04 C3 49 42 6D DE 1C 18
 8B D4 E4 1F D4 30 E6 38 12 B0 E1 4D D6 72 B9 64
 F4 F1 92 A5 B8 51 B8 9A 68 21 B9 F7 1B 58 B0 1C
 3E E0 3E E4 4C F4 07 90 FF D1 FA AC DF 7F 32 77
 51 4C 15 C2 C5 B9 ED E9 A9 C9 E4 2B FA DF B7 1B
 10 70 7D B4 CE FD ED FA E9 C2 92 9E 27 C3 9F 36
 2D AA 1F 61 2D 06 B3 36 75 D1 BC 7B 98 12 E5 50
 B2 C2 4F 05 0E CB 72 2A 73 49 DF 0C 2F 33 F0 0F
 29 17 BC 70 F8 01 3D 37 5A A4 C6 87 E0 B5 91 FD
 8B 79 47 5B 75 C4 04 77 93 47 6A D9 20 DE 74 87
 48 29 40 20 80 B4 E9 0F 98 BC A0 61 00 C2 20 67
 D2 A3 17 4F CC ED B4 8E EF C9 46 51 25 44 D2 BB
 9B 52 F2 C8 85 78 35 35 FD DF 47 BA B9 4C 6E 53
 AB FF 6E C4 0E D5 96 F2 73 02 61 52 A0 A8 FA B6
 C3 A0 F1 75 4E B1 BC 76 CA BA 24 CE 8D A4 9C FF
 CE 74 32 6F BB 06 D8 3C CF 8C AB BC 35 81 C2 5E
 C8 D3 92 7F 1B CE 85 2A 09 59 FD 34 9B EA F7 B7
 D8 8C 94 64 9C 6F 46 2B 2A 8E 61 53 59 25 82 18
 CC BD 14 0B D0 43 C2 55 A4 3B 2C CB 45 72 79 3D
 6C 51 98 A2 27 65 16 E6 97 39 7F 96 D1 EE 64 9E
 48 37 C1 C9 1A F2 F7 53 90 17 8C 07 8C 39 26 F0
 1B E0 56 4E 26 C6 B5 48 E1 DF AB 4E 46 A0 18 7B
 D0 24 6F D1 DE 38 0C 56 30 AC 43 6F 00 50 00 CA
 11 30 49 DC 36 4D D8 04 80 A6 D9 40 10 27 BD 97
 0B 7E 41 D3 E3 71 F2 40 D3 B6 6D 51 44 86 2A E4
 2C 9A E6 65 4F 5C F7 27 86 3C FA 8A DA BC C5 20
 20 FA 89 17 C6 0E EC DA 03 9E 80 FD 49 14 E0 39
 89 A0 10 5A 26 45 85 1A 28 22 4D EA 02 E6 44 31
 D9 B1 B7 62 13 0B 60 65 4F 47 5D A8 4F F9 E7 DA
 E1 AA 0D 46 5C 9D F2 C2 03 72 95 35 81 66 87 47
 14 F5 5E 79 9D 03 2A F5 DA F6 2D 7E 58 88 E4 57
 A3 F6 F4 03 BA 4A B3 23 86 A1 EE 16 F2 BD E1 C4
 9C B9 C2 9C 5C 54 DC 41 63 99 33 76 34 32 E6 B1
 71 C0 5B 94 A6 23 BD DC A0 DE 7B AE 98 47 73 19
 B8 17 84 60 F8 2E E2 38 61 52 CE 19 9B 22 4F CD
 81 0D 28 22 D6 A6 74 73 4E 28 6A 17 E9 0F 89 7B
 FD 16 25 9B 4B 28 5D 53 F1 52 C6 21 3F C2 0F 36
 7D 87 C6 63 83 42 BD 62 8F 84 1E EC 7D 06 5D AE
 BE 90 00 6A 7E A8 8F D6 05 79 3B 5B 35 58 2C 9E
 28 B2 C3 97 4C F2 E8 8B DF 38 89 60 FC 30 72 24
 28 2C F4 8E EB 73 3F 75 77 D9 00 A3 5B F9 BC C7
 60 5D 2D 3D 6D BB 58 70 9E 31 7A 78 6D 99 AE 35
 E9 F4 5B 34 CA 81 99 8D 6C B6 C3 F6 59 8A A1 57
 09 F3 8E 33 7C EC 62 C4 13 DE 0E 87 46 F9 D6 9B
 AE 9E FD D6 82 4D 33 1D 03 99 06 0F D7 63 07 DD
 1B 91 AB E3 03 EE 05 2E 00 5B 41 97 72 8A A5 AE
 07 6B 48 3B A6 83 9C 02 41 38 A0 0C F6 9E D5 58
 AD 3C F0 D7 16 40 77 56 26 B3 4E AE C5 7A A9 CD
 56 0F 20 5A 3D 22 11 FE 22 42 11 67 78 79 60 94
 E5 BE C4 14 21 EA 90 86 40 84 CF 0D EA BA 69 E2
 BC 74 F8 8F F0 A8 48 A1 CB AA 0A E4 64 AC 74 CB
 D8 F7 3A F2 44 D1 6D 7E 4D 6C CB 8B 43 B3 7D 8D
 E6 2A DA FD F0 4A 46 7B 24 A0 1E B6 A3 72 7F D0
 F2 97 E1 34 37 C4 1B 65 0E 36 A4 9B 3A 13 3D 9D
 2E 23 B8 71 75 C3 B3 DC 33 25 38 05 D8 7E 78 5F
 01 0F E7 7B 7A B3 67 E8 07 67 AA F4 5E DE 29 23
 15 4C 06 D3 AC C2 A3 E1 FA 6D 0F F3 0A 49 EA 16
 58 8C 56 7F A5 C3 FE A9 AA E9 BD 16 E9 EE B5 F6
 65 08 B4 4B F4 DC 09 83 ED A0 A9 00 7E 79 52 A3
 5B 0A 78 80 DB 42 66 84 6B AF 57 4D 65 85 80 84
 5A C1 95 20 71 19 A0 D4 00 10 28 82 48 05 9A A1
 5B 02 6C C2 4B 88 20 4B FD 17 92 3D A7 FD 11 87
 47 0C 94 08 79 D2 6E B9 91 B0 BB A6 80 95 D3 2F
 CD 0D 64 2B DF A6 4F 4A A0 06 62 D6 CC 9D 5F E2
 CF 15 07 AA 5E 1C E2 E5 A8 C6 17 CE E2 8B 29 53
 67 34 39 F9 9F 1E 7F B6 26 CD 17 F1 92 AC 85 70
 4E DE C2 02 1E 6F E7 2F AB 0F E8 CA AD B5 6B F8
 C5 DA FC 71 AF E2 4B 56 6C EB 95 01 DB FF 49 D6
 BC CA 11 D0 04 41 A7 9A 05 E3 56 84 E4 9E D8 AD
 F2 3F BF C1 EF 73 54 E6 E2 14 C6 A5 72 2C 12 FB
 00 38 20 78 82 81 FD 86 89 B4 D7 21 C9 59 11 7D
 2A 0D 9F 35 E6 9A 3C 21 11 7E 4D 82 70 15 6F D9
 53 F0 C1 A4 EB 1D DD 55 34 24 FA 9A 1F 81 70 3E
 6E 8D D6 85 30 60 02 6D BC 45 F6 5D 91 D0 A2 8F
 C2 11 71 31 41 11 0F EF FF B7 09 44 5C E7 85 E2
 69 D7 CB 58 45 DF 37 E0 AA 37 96 D1 48 C0 91 2C
 15 CB 08 40 49 1F 08 7B C5 3D E8 B8 4D FD 7D 0F
 84 51 02 EB B5 C2 09 1E 6E 71 6D EC DF E2 C9 10
 2D 80 97 4C 2B 5A F3 5C 3B BE E9 C1 C0 AC C5 7D
 1E D3 7C C5 62 1A E5 34 2A 88 D6 D9 3D 81 68 52
 85 FA 6B D8 D7 2A D6 0A CA 3F 09 F6 2F F5 54 CC
 77 A4 92 69 59 AB DB D7 74 A1 2B 7E A6 8E 15 98
 2F AB E1 B6 BD BC 64 83 28 F3 75 F5 7C 28 C2 CB
 53 73 05 60 24 53 6B 99 2C 6A 63 AE 5B 1A E3 A4
 0C 22 07 6A B4 C7 B1 4F 9D C8 1C 21 9A 81 FA F3
 7A D4 32 AE 1D 11 56 ED 8B F8 92 15 71 CD 86 7F
 C3 2A 20 EA F4 98 84 39 90 D5 42 A9 EF 9E 33 2E
 F2 37 77 C9 2D 61 8B 5C D3 B8 00 FC 5E FC A6 A5
 82 68 3C 62 6F DF D8 42 49 1C 74 49 8F 28 38 41
 EC 01 69 4D 65 3E BF B4 EF 24 28 91 54 31 5D 9A
* End 2211832620 3445179353