* LTspice Encrypted File
* 
* This encrypted file has been supplied by a 3rd
* party vendor that does not wish to publicize
* the technology used to implement this library.
* 
* Permission is granted to use this file for
* simulations but not to reverse engineer its
* contents.
* 
* Begin:
 F6 95 AE D3 05 80 C6 40 09 CD F5 81 8A B6 54 63
 51 29 F9 61 29 E1 DD 5F 1F FC F2 FE 7A 67 BD 14
 A6 7E 9D 63 9F 86 CD 8D 90 DB CE AD D0 4E 9E 25
 39 D2 F3 33 8D B4 44 51 B7 6F 40 2A DF 2D C1 07
 58 EF 94 B9 B1 D5 C7 FA 9D D6 2C 88 4A DC 0D FD
 C9 7F F9 FC FE 86 9F 33 71 D6 77 F7 B0 93 75 88
 9B 24 26 96 BE AF 83 6F 05 56 05 14 39 18 E2 8F
 CB 42 22 D0 AC 39 52 8D 38 32 FA 58 30 B4 B8 F6
 A9 E4 47 82 83 C2 C1 2F 33 E2 FA 16 4E 49 C8 FC
 19 BA 54 AE 16 32 3D CB C0 EA C6 F3 D2 A5 15 BF
 C7 06 51 02 46 9B AA 45 12 C2 5F AE 1A 00 8B FB
 1C 37 17 A4 35 8D A7 E4 72 1D 88 6E 45 F8 3D 1F
 35 EB 22 0A B4 A5 80 37 42 63 43 C8 D9 86 69 94
 F0 82 95 70 A5 DB FF B1 EB CE CC 37 A0 91 3B 2E
 CA FA 1C C6 93 D4 E2 5B 8A E8 47 9E B1 37 EF FE
 1E 1C 86 63 85 7E 03 65 5F 38 70 E1 95 1B 1D 9F
 E6 26 98 23 FF DE 3F CA 28 5C CE EA AC D9 55 5C
 E9 06 0D B3 9D 61 B1 53 7E BB D9 B5 65 04 AC 3C
 B2 79 18 87 BA 84 73 A5 EE 5D 69 2F 3C E3 25 5D
 1E 45 C8 1C 47 5A 41 8C E5 CC 8B 29 44 4F 4D 86
 2B 01 91 83 F0 53 DA 18 E9 16 1D 7F 9D 66 E1 66
 C0 99 FA E0 5D 71 A7 DA 78 FC 5A 62 1A 88 78 F1
 76 4F D4 1A BC 24 9F C4 55 BB 81 A7 9F BC 29 51
 DC 39 79 FA B8 5A 62 F3 B8 56 91 BA B8 5D E3 65
 14 94 47 18 7C 43 4D 67 10 44 FD E4 2B 08 28 3E
 0F 7B 3C 78 41 CE 68 8B 9D 9E 6B 23 06 83 71 06
 62 60 08 50 5F 23 04 A0 BD 40 05 1C 0E 00 50 3B
 BE 77 BB 5B 2D 3B 10 D2 D5 B7 4B 73 E7 EB CA 9F
 F3 56 44 07 88 A0 81 A9 70 0F B1 67 6F 07 3B 51
 BB 85 7D 92 13 95 F9 BE CC 65 88 06 BD F9 DC CA
 A8 63 D5 F9 92 7B 80 54 7C 8F FA EE 90 67 9B B3
 1C 6D 97 10 AE EE A4 8A 5E 42 48 A4 14 70 B6 9D
 6D AB 7B 5B 7F DA 68 4B BD E1 73 49 2E 6A 4E 00
 91 49 37 7A 51 00 62 CA E2 AF 6B 89 50 62 ED 75
 76 1D EE E3 FF FB 67 8C C8 8D FD A8 A6 88 87 D8
 DB 8E 85 BC 24 A4 06 B9 A1 ED 13 77 04 A4 B9 55
 25 D8 02 D5 9F A2 BC 6F 33 5B 30 78 CA 63 95 9A
 C0 32 30 71 6B 23 95 16 0C 0A C6 D7 80 93 6C CA
 33 83 82 56 06 06 EE 4E FD 52 76 F7 83 10 44 9C
 81 EF EC AE C8 39 F4 12 7A 63 B9 13 3B 4E 34 95
 85 82 2E 0E E2 99 B0 C6 F0 1B 52 53 9F 30 2F B2
 3B 92 57 00 7B 47 49 9C 3E 67 59 27 0D CB 20 76
 09 78 D3 9C D7 AE 31 EB 72 FD 3D 6F AD 7C D4 E9
 EE 59 11 9B F4 87 D2 B4 2D BD 15 B9 FB DC A9 11
 F4 39 D4 CA ED 3A AC BC 10 5A F2 42 57 AE EE 67
 B5 5B 80 D9 30 70 CD 4C F8 C5 37 1D C1 C3 FE CA
 9A 04 7D CB 8F 01 7E 91 55 7D C1 2E 8F 04 22 F1
 B5 B7 FB B4 6C C5 34 69 E9 0C 93 7E 79 9D D8 63
 B8 0E 8E 78 4B 03 63 51 B4 1A 9A D6 DB 64 44 E5
 F3 0F 8B 76 3D 17 4E 77 1D B9 17 60 72 09 37 54
 B4 88 84 F7 E9 70 67 A9 7A F5 BB 44 D0 44 57 77
 88 C6 0F 1B EB 73 BE 37 B6 F8 B9 34 2F 4E E1 08
 53 13 41 D2 D4 52 66 FD CF 9E 87 4E 9C 4C 5B 8B
 23 07 95 E5 67 95 10 E0 24 9D 01 79 C1 66 DE 44
 95 6A 15 0F 24 B3 63 BF 89 54 52 DF 18 00 56 D9
 2F 38 92 1B 2A 90 D5 3B 9B 69 E5 10 E3 CC 1D 90
 77 CF FB 01 67 8A 33 F5 43 C2 55 25 A3 0A A5 23
 D3 E1 01 10 26 6A 48 D6 4B 28 8D F7 35 8B BF E6
 5A D5 F7 4D 28 A2 C9 F5 1F 86 18 35 46 71 6C DB
 9B D3 E7 3D 36 7F 72 34 9F AD CF 10 C0 B9 B5 4C
 8B 0A 29 B5 D2 3C B7 C7 2E AE B7 11 15 74 13 3E
 35 DA 50 07 35 73 96 27 55 2E CB B3 90 46 A8 8E
 B6 03 2B CD DC A9 96 5B F4 B4 BA B6 59 AB 49 3A
 99 45 CE C1 32 EB 25 12 BD AE 8E CA 5A 87 71 18
 46 E5 ED 33 08 02 32 37 27 94 56 9E 13 FA BF 30
 CB 17 EB 16 A0 9D 43 40 00 2B 2A A0 21 82 89 B5
 AB 19 A9 C2 B3 4E C4 59 33 8C 71 3C E9 5C C7 F8
 B5 DA 9D 53 B7 2A 3C 48 EA 71 7D 00 65 36 87 A2
 48 0F C6 5D DE 14 94 F3 51 24 6B 4C 90 86 CD 75
 1D 2F 2D 29 D3 9B B2 5C E0 F5 55 FC E5 34 8F 6C
 35 40 20 6E AA C8 F8 85 ED D2 99 53 BC D3 9E 2D
 40 17 B4 B7 31 07 EB 64 42 F2 5F E3 DF EF 6D 0C
 19 E4 F1 1E 5F A4 8F D9 50 81 13 78 8A 19 B1 13
 66 8B A5 23 56 CB 62 C9 0C 0B EC 7C EF 9D 08 88
 0E 29 FE 54 C6 A1 97 53 A2 CF DC E9 6A C5 96 86
 13 61 EF FD CF 14 6D 4C 8A 0F FC 77 31 60 90 32
 7C E0 40 8A 86 4C E5 31 FC 36 FE 32 01 62 C1 30
 60 8B 7E 24 B2 7C 6A 10 28 E4 BE A2 D3 1E DC 9D
 57 05 C6 04 11 A5 73 97 2F FD A7 10 2F 5A 7A 92
 BA 93 C9 2B 5B D2 40 9D A7 A0 3A 95 FC E6 7D 71
 5D E2 A3 4A C4 28 27 9A 24 91 55 D2 3D 4F 5D 3D
 E3 2B 5A CA FB BF 07 33 66 1A EA E1 56 F2 9F EF
 BE 85 5C 7D 32 C9 31 F4 A8 CE B4 F5 5C A9 8C 5F
 4F A6 AB 35 FF 27 FB 84 A2 AB 37 E7 80 B7 60 67
 8B EF B4 8D 75 A6 78 28 C0 72 AE 5C F4 2C E3 88
 FC AB 43 EF BE 42 04 71 B0 44 5C 45 B5 B2 AE CC
 74 F0 96 5A BA 8F 0C 7D CB 9B 5A 41 9A 2C 3D 88
 E3 A5 4C A8 B3 B8 00 7E A2 C0 5B 78 8F BB 0D 85
 67 13 80 1C F8 6E B7 AF 85 FA 26 71 8B 39 30 6F
 3C EB 6B F4 89 CB 56 FB 7C D1 AC FD 2C 8A 5F 49
 09 B5 D1 36 C9 14 20 26 0B 21 17 C1 52 32 BF 31
 DF 99 4D 2B 29 18 9B 46 ED 4E A3 50 BA 36 EE 0A
 F4 38 14 77 C8 B0 E5 F2 88 A2 BB 71 AB A3 B9 0D
 A0 99 04 60 11 7A 62 5D 10 F4 13 DB DD 22 44 16
 29 B7 69 39 11 D2 57 16 D1 DB AC 2B 27 6D 2D D8
 63 E8 E9 4D A4 FF 74 D1 27 B0 99 3A 44 D3 63 17
 2C BE 7D 3C 6A BF AB 20 0C AE D0 58 B7 2D 1C 96
 43 DD B8 AF 2B 7E 8F 1B D0 D9 68 B6 08 FD 5F E0
 B7 00 33 99 7A CE 62 2C 0C EE A8 5F D2 CE FE 4E
 55 F5 5A 0F 11 B6 4A 25 ED 18 17 AD B2 CD 29 D9
 41 D4 56 EC 97 98 D0 A6 FB D8 62 3D D4 33 CF C9
 86 75 EC 7F 1D A4 05 73 C1 39 92 32 52 F5 EF BF
 C0 37 A5 58 64 CD 19 37 06 B4 E0 B0 B8 8A AF 65
 F0 2C 85 91 05 37 8F B5 4D FD D5 9A 80 A1 97 1B
 02 39 8B AC 23 DA 28 60 EB 5B 2F 67 81 7F 24 BD
 C9 EB 38 14 7E D0 5F 1F 61 F7 5D CA 70 E0 11 B7
 5C ED 39 AB 71 DB 48 07 7C 69 46 E5 71 71 CB 5A
 63 98 3A 8A C8 69 35 44 F1 18 86 A0 D0 E4 FE AC
 DA 01 C8 F9 AB D1 9B DA 38 4C 1C 56 DA C6 71 50
 D3 F2 38 DB 10 E7 18 E0 90 1D 2C F1 8B 35 2D E7
 9E 03 C0 11 C4 1C 26 30 3E D9 A6 5A 4A FE AA 1F
 EC F5 19 40 91 3B 20 BB 80 24 40 49 87 9F F0 44
 F3 C9 39 83 26 90 E4 86 17 3C 43 AF E1 0E D7 C3
 6A 00 FB CA 83 26 61 16 F8 98 A1 A8 B3 F3 D2 87
 C3 DA DC D8 EA FA 01 D6 73 AC ED 73 26 98 62 B9
 C7 F8 D8 7B 17 28 17 62 96 4B AE 48 73 E2 8F 7E
 1D B9 6D A2 30 67 D9 FB 5C 49 21 64 C1 7A 3A C1
 E4 91 87 E9 8E E9 E9 89 7E 18 80 DB 99 42 F3 41
 FA 31 3B E1 41 C4 6C BD AF 7E BE 13 61 C8 B0 D4
 EF 03 96 4A F9 65 7C 9D 3C E5 02 D1 67 1A E0 DA
 8C 3E CD 46 6B ED 6F 13 04 46 02 DC 95 74 D4 35
 DB E1 B6 9E E9 70 6F 0B 41 4B 7D 10 C5 45 94 C5
 C3 33 E5 7C 27 F7 AE 91 11 1C 4B 20 46 20 3F 8D
 91 76 05 BC FB B8 10 74 6B 1A 4D 01 FB EB 6D E9
 49 E1 46 92 09 87 A3 65 20 3F 37 3C 2C 0B D2 6B
 E1 E6 8B A6 5A 4F D4 13 18 00 EB 46 09 D3 19 AD
 AE 07 38 11 59 15 C9 1A 5C E7 13 5D 2A FD 4A 05
 62 11 D5 45 C2 92 B9 57 9A D9 8D CE 24 B5 60 1A
 59 F1 82 60 47 42 87 E6 10 A7 FB E6 06 DF 6A 86
 EB 9B 50 4B 1D 25 56 55 BA C3 8A 41 17 9C 3C 2B
 78 10 91 F2 5F F7 3A 0C F9 2D F8 63 01 42 63 BF
 94 5D FC 73 0A 37 12 B2 34 57 71 F2 39 6B 19 CB
 E7 5D 64 20 A8 C6 BF 81 A7 26 F1 90 84 B7 28 06
 B6 7C 75 F0 C3 8F B1 FF 62 A9 2A 82 3B 54 AA 31
 1C 32 34 02 4F E6 1B D1 35 15 A4 9E 1C A1 82 DD
 2A 91 C7 7A 3A C5 B8 2C 78 11 8C 90 6C D6 F7 59
 45 2F 37 82 51 FC 1D 27 58 03 3C A5 7C 3B 74 99
 AA 6F 52 B3 E0 84 40 86 FF 98 0C 67 A2 C9 D1 5F
 CB D0 81 D9 4A 41 A8 83 FD 35 D3 31 30 CF 6A A7
 39 3F 0E C7 20 00 D7 7B 78 80 AD 52 55 51 9B 0A
 71 35 22 E0 AD AB 79 6E E5 6D 04 A6 EB A9 54 38
 A1 9B B6 DD 97 B2 00 56 B8 11 51 BD 47 7D 26 09
 8C 89 62 54 5E 98 20 B7 89 B9 2B 1F BB 91 96 8F
 B8 B8 11 A4 BC 40 93 01 ED 94 BB AD D8 84 DA 0C
 94 88 D1 27 85 5D 7A 55 5E 6B 6B 20 93 CB 1B 0A
 77 CA B6 A3 E7 7C 2D AC 75 7D B9 41 2D CB EC 93
 83 8B 50 64 CC BE BE DA F9 74 95 C3 7C 70 04 C7
 44 D4 22 C3 99 73 BE 8F 2F 3A A7 C8 C6 7D 88 64
 CA 15 0A 96 47 19 31 DC 40 68 B3 19 4C 00 9A 95
 8A FF 3C A9 F6 D6 AA 0E EA A7 B4 51 C6 8F 89 29
 D8 46 82 BE B8 7A FD 3C 95 F6 D9 AC DE 0C EE 3A
 70 25 76 CA 7F 62 C2 64 36 A4 C2 33 C1 4F 3C D8
 00 0F BD EB B8 6A D1 93 84 9A 23 A0 FC C6 F0 85
 09 B0 30 B1 CE 10 B6 C4 90 E8 FC 00 26 57 38 81
 7A 0A A0 68 60 35 2E 0F B9 3C 90 30 F1 8D 79 A7
 34 88 DF 8A CC B1 97 83 EE EE 7C B4 8C C2 18 59
 4E 99 8A FC 68 8D 17 BD 71 92 28 20 D1 C3 AC E4
 14 1B 96 27 B8 C4 4F F5 AD 9C 70 86 D7 98 79 1B
 6B 22 82 77 72 B2 E9 6B 52 5B 09 7F E5 CD 78 07
 B4 36 94 71 C3 8A 28 72 1B 3D E9 9F 40 4C 97 01
 2F E4 CD EE 62 3C 9F 63 5E 9B 0C 37 08 0A 05 C5
 BC 1C 60 8E 18 A5 B2 F8 11 80 31 D5 2B 13 3C 2B
 AC E3 9A 31 17 DE 18 92 B1 B0 BA 25 11 2C 96 63
 78 10 4E 5D D5 8F A8 0F 52 7C C1 87 31 AA 8D 25
 89 D9 9A 2C 03 20 2D DC FB 63 89 DB 66 E9 8C E7
 4D DD 3B B2 F2 2D C9 C9 B0 18 95 F9 C1 2C 63 9E
 A1 BA 0A 8D EB 02 1C F1 5D 8F E6 AA 9F FD EE 4F
 2F 2B 31 66 BC 3B 71 8D 7C B7 8E 2A A2 77 A3 AD
 BF 6E 65 B0 C5 3F 05 EF 25 C4 05 DF 67 95 58 48
 5E 4F E8 1D 16 74 7C 20 99 C4 68 DF FD 70 BC F2
 FF 70 23 28 EB 8F E0 E0 AF 9A 9E 6C 2F 07 52 38
 E2 A1 80 67 15 85 72 4F 2C BF 01 4A 6A A0 A4 57
* End 2406089275 2251483276