* LTspice Encrypted File
* 
* This encrypted file has been supplied by a 3rd
* party vendor that does not wish to publicize
* the technology used to implement this library.
* 
* Permission is granted to use this file for
* simulations but not to reverse engineer its
* contents.
* 
* Begin:
 EE 0E B7 2A A1 B4 6D 90 90 17 E3 B6 68 FA 9C 19
 70 0E 22 19 B9 F9 2D 32 CB 6B 44 DA 26 BD E5 C8
 E4 1F DE 90 A2 94 46 2C 87 AE 5C 3B 0C 20 D3 43
 73 BC 60 8B 06 F8 8B 10 0A E2 31 3D 00 23 E8 BF
 ED 32 ED 54 7E 4B 37 D8 C4 7A EA B4 FF AD A5 9E
 90 5D 92 8C 07 E3 F5 04 D6 BD CB 52 29 22 8B 44
 FA 3D DD E5 BA 83 BE 12 1E E6 D0 CE BE FF AC 29
 6D 53 4B 76 BE AD FD 62 56 44 75 A3 28 96 E8 36
 7D E1 79 52 EA EA 15 F3 D7 04 FD F1 1D 41 AD AB
 D4 27 2D 98 F6 3F 3B A0 A5 5F 7E 05 B1 4A 03 25
 19 1B B9 A8 1D AC 54 99 15 3A 55 B3 55 1C A4 D0
 E6 F0 58 E2 79 C0 46 01 84 BD B3 7D 42 E4 E9 40
 85 F0 0E C4 06 F3 55 1D 44 22 29 C3 D3 DB 5C E3
 B2 86 5A 86 9E A2 6E D0 6C E8 61 50 CE 87 F6 CE
 C3 23 26 90 40 4F 2B 05 6A 8B B1 6C 91 AF 13 03
 AF EE 71 47 92 9F 88 17 87 1E AF 99 30 18 D5 89
 28 C0 0E 96 3D 5B 5F 51 3F 98 8A 61 B1 F6 9B B4
 70 04 69 AA 53 D1 B8 02 56 3C B4 C5 5B 33 6F 54
 D6 70 09 71 C1 14 6A 81 2E 08 96 EB 42 DF 0F 6A
 C3 F4 60 D2 31 4C D3 6E 17 9A 90 88 1E 2F 8C 9B
 4C C1 6B E6 E9 7C 62 03 48 C1 01 8C A6 87 FB 03
 99 85 D9 37 4A F3 C4 3A E9 0F C9 A4 51 AA 11 A8
 50 55 AF 6F 19 FF 40 84 C7 F5 D1 E5 FC 25 E4 3F
 A9 29 DB 8B 99 B9 DF 1B 8A 05 FE 5B 46 EE E6 E3
 FF D2 33 DA E7 C3 30 E1 2F B9 66 28 CC 9B 34 B5
 6D A4 FE A2 B3 D2 DA F7 A7 38 B9 DC FA EC 3F 0D
 C0 DF 22 A3 38 DA 6D 9D 04 09 B1 81 E6 F7 ED 69
 5E 61 05 34 DC 0E 7E 33 6F 83 E7 AB 8B 8E AD 0D
 22 06 75 08 42 A7 43 C6 86 03 D3 AA B2 B6 3C 5B
 32 D1 46 D0 FC 0F E8 FC 38 75 E0 C8 3D 86 7E DA
 71 B2 E0 A6 78 0F 51 E1 06 B9 32 55 43 39 5B 0A
 3C 02 EA 09 96 E3 D4 9D C9 F1 F2 47 22 E1 F2 4C
 EB 0E DD C6 4D 5A 46 AE AF 48 08 76 CF 8D FB 05
 1C E3 07 D9 AE 4A C7 7B B0 2C E2 7D 2D 3B 52 77
 BE 99 88 84 3B 33 01 26 E4 D3 B1 F6 6B F3 A1 16
 DA 7A 99 52 AB 1E 12 14 74 98 E5 88 3B 73 D1 8E
 95 4A 13 33 10 0B 05 69 0B 5E 1F 76 E5 7B E9 53
 05 FA 6B CC E6 F6 C4 B8 95 49 11 C3 8D 9D 77 A6
 21 C6 6D C2 C1 8E 0C AC 63 1F 5A DA 60 7F 7C 34
 CA 5C DE 00 17 26 82 80 A7 9A 27 76 3B BB 53 36
 8D 0A 2F AE D2 C8 6B B3 C7 6F 6E 06 E0 2F A9 1E
 14 BF 1D 43 34 A0 76 13 E2 98 74 94 6F 76 7C F0
 DC D0 51 D4 C5 02 1E 53 FB FA A1 C3 33 15 9B A2
 3A 0C CD A8 2B F3 A0 D7 68 57 4A 88 7F DE 1E 77
 94 A9 E0 DD AB 3D 21 C8 EE B0 3A CD 1A 1B 29 18
 D2 80 14 F9 59 5D 69 DB CA 5C 41 E3 E7 F1 B9 4A
 45 1F 37 FF 39 2B 61 08 60 9A 30 B1 4B 91 2C EB
 62 2B B5 3F A3 BD 1D F8 F9 6E D2 E9 2D C1 B9 D7
 B8 A0 15 EF 72 45 47 D0 DF 3A 5B 02 B8 22 A6 F0
 47 6C E9 24 FD 49 CE 4C 5D F3 43 51 B4 E5 E7 43
 54 17 8A D9 61 20 9C A8 6F 7F 2A CF 91 B6 8C D2
 32 AB B7 53 C6 61 19 7F 9A 21 84 37 C1 E3 11 65
 6F CC 67 30 FA C5 41 C4 17 23 BA 53 F4 ED F8 E8
 94 E5 8A 3A A5 75 2B C7 97 11 C2 6C 38 72 E0 C9
 64 92 E1 4F 3C AB D7 BB B9 DC 4C F6 B1 6B 4B 96
 AE 34 D6 D5 30 6C 7C DB BE E6 D3 F9 A5 CA 8D BA
 36 5E 86 44 44 86 42 D9 E3 F0 D7 63 A6 82 B5 B8
 D0 FB 47 6B F1 A3 2E 63 7F AB E6 D3 24 A8 40 8B
 BC 28 04 7C 4E 30 4A 6C 9C 5D 6B 01 0B AD B3 18
 41 6E FB A8 A1 91 EB B0 70 16 4D 09 FE 30 04 C5
 47 8B EC CC 99 B3 34 B5 5F 56 FC 33 F0 FC 4C D1
 C0 0F 53 3D 5B 72 5D 58 3E 9D B7 16 45 E5 FC 4F
 B9 E9 40 AC 6C FC B0 2D 95 5C 2A 11 26 D5 53 5D
 53 08 33 2D 07 F5 18 A0 40 FC D1 76 08 45 7E 6C
 E3 6D 41 DE 5B 06 EA D0 40 42 29 D4 B3 CF 7B DE
 36 15 F9 F3 C9 E7 FF 66 18 17 00 89 A9 5F F5 85
 BA 93 61 CD 52 9E 25 E2 B3 10 EE 2D 1A 54 12 A5
 BC 0E 61 C3 2F 51 C4 27 A2 44 0C 3F 59 41 65 EB
 C9 39 44 0C 73 0B 34 FF 34 30 26 B2 9D C5 AD BA
 91 EF F5 3A 1B 54 0E 44 51 62 E6 B1 8A 31 17 D7
 D6 9F 01 01 83 94 EE 8E DB 7C 6D 40 BC CD A3 5A
 C1 73 9B D6 B4 DB 75 41 17 2A 9C 95 D0 8A F5 CF
 DC F7 2D 47 7A DA 66 1A 13 87 F9 C8 A2 E5 8B F2
 4C 01 94 7E CF 06 40 82 EF 98 BD 07 14 E2 68 B6
 F2 3D 08 5B D8 B2 7A 84 C8 51 DA 96 D7 65 3B 1B
 66 11 53 C5 DD 24 82 88 91 05 2B 7E 07 09 16 31
 53 2F BE DC 9D C5 B3 66 D8 A0 AC F5 E8 20 97 26
 E7 9A 91 96 74 08 91 0E 63 78 BF C3 ED D4 27 69
 D2 84 D5 9E E3 C3 8C CE E6 BA 2B BB 2C 9E FB 9F
 99 77 C0 5A 7C AB 26 66 BB 10 80 CC 9D 36 30 B5
 6A C7 65 5B 91 24 C0 4A AA 02 A4 6F 76 29 D2 35
 78 9B 7F 01 87 E7 0F BD AA A0 D6 5A CE 48 D3 29
 E7 89 BD 86 8B 78 7C 2A 0B 76 3A 1F 99 D4 EA 68
 C8 C8 31 81 0F C5 35 37 7A C2 3D 34 05 AA 82 42
 B6 5D FF 13 09 03 9A 93 D2 E6 3A 45 B6 DA 86 C7
 E1 C9 61 69 DA B0 A4 3E 81 DA F3 2E 05 E6 39 C0
 92 DC 2C D2 29 B6 0C CF AC DA 9A 87 14 6D 03 85
 49 FE B1 83 F9 02 37 C0 A1 8E 5B C6 BE F2 47 02
 27 1C 91 0F 2B 09 94 E2 17 AF C5 B7 C7 25 D8 27
 B8 40 D2 2F CC C8 A6 5C CD 6C 9F 36 34 8D FD 77
 8D 7D B5 DB 7F 58 07 49 D1 4B B4 85 A4 7E 9E 51
 9A 8C 21 97 92 77 35 0C 01 CC EE E1 1F 21 02 EF
 52 41 41 5D 46 CB EA 68 9D 03 E2 1C A0 94 D6 92
 FE A5 D8 D3 51 8E 5B FF 52 CE FB 51 89 50 63 E4
 00 D1 38 8F 54 FE 19 69 4C 8A B0 8E 1E 62 C3 92
 59 C0 3D 5C BA F9 11 AA 76 02 24 3C 63 DE F8 F9
 25 0E 0F 18 CD CB 96 16 45 3C 6F B0 10 E7 4A AC
 DC C9 FB 8C CA F1 9E 9B DE 4A CA 20 56 0A 52 E7
 CE 1F 5A 49 D9 3A 9E 2D CC 3F E9 D2 CF 4F 8A 5E
 AD 16 F5 5D 8B 7F A4 E0 1B E0 86 F5 BC 6F D4 3A
 8B D8 63 46 6A B7 7C 05 4F BC 03 A5 8D D1 2A D8
 3C 4A 13 C8 59 B0 70 86 D5 71 BA AF 80 87 7A 8C
 05 C6 64 50 BD A0 95 A3 0B A6 54 A0 17 72 81 BC
 93 41 56 C3 20 BF 3F E4 D0 8D 03 E7 D7 B8 36 2E
 99 CF F0 28 F5 53 99 9C DC 58 48 54 AD BE D5 03
 22 F2 E8 44 52 1F 96 9B 58 1B BB BF A9 AD FB 42
 FB D2 E8 58 AD 27 08 3E 50 7B 8B C7 FA 67 64 20
 25 6A 2A 72 F5 FA 35 8F 02 7E 9D D5 57 00 2D CF
 4F 81 1B E9 74 64 9C D2 0F D4 53 FC D8 4E AA BB
 86 74 2C 78 F4 19 84 99 6B 60 45 7C 38 1D 6A FE
 4E 82 58 9F 93 83 DD 01 AB 89 E0 1D 90 E8 93 DB
 39 00 70 EE 58 88 0D EA CA B5 C5 F9 11 01 8A 26
 D4 B2 52 42 D3 C3 65 61 F8 65 2F EF 31 14 63 A7
 AE 29 BD 85 77 66 C4 F8 20 F2 76 8C 25 F8 74 43
 7C 44 C3 FD 7B 6D A4 24 97 10 28 88 B5 48 1E 9F
 7F 56 A8 77 AF D3 B5 CC D4 BA 05 38 F0 38 7D E4
 84 99 7E 4A 92 97 20 A2 9B 59 C9 25 65 6E AF 87
 D8 5B 5B 12 A4 B7 2B 13 DF 42 8B 61 76 A5 91 7B
 EF 31 3C 8A BD 6B EC D7 AE 16 3D 44 1C F9 1F D7
 D1 C5 CF 98 46 8E F2 32 B6 E2 68 31 73 0A EC 1A
 D2 FA 20 11 3B 51 57 9F CD 89 22 BC 38 B7 B9 AA
 C4 11 FB 77 59 5D 40 23 0C 30 95 2F 4E 48 A8 F0
 11 F0 7A 4D 9D EC 1D 3A 58 9F D8 A7 0D 13 05 AD
 70 F7 B8 00 12 8E F3 AB A5 EA 34 18 E6 7E DA 1C
 49 A2 86 93 DB B9 42 64 91 07 B4 44 C2 31 B1 F4
 76 07 98 96 6B 79 31 5B C1 03 25 A3 6A F2 D6 15
 CE C4 85 B8 59 FE 12 BE 87 1C 99 8A D1 3B 2C 57
 58 AA E6 B9 FA 66 87 79 F7 D3 53 CD C8 D3 F7 B1
 A3 67 41 9C FD 5E BE ED 67 42 3A E6 DC 1C ED 82
 42 56 A1 CE C4 65 29 6F F4 46 54 B5 08 A3 71 61
 54 CD D2 B3 21 39 1C 2B 72 9D AA D6 DE 0A 38 ED
 A4 81 CE 87 C8 97 15 48 9F AC B7 40 92 B4 9B 85
 C0 20 1B 3C 75 F0 DA CE 68 C9 13 AC 88 28 41 52
 B4 83 74 53 B0 63 D0 AC EE 77 84 DF 2C 27 53 30
 C2 7C 83 EE 63 E7 F7 96 18 03 44 66 B4 0C A1 71
 A7 FF 3B A0 C4 93 9A 62 5A F3 F6 C8 C2 A3 D5 83
 81 20 6F 30 CE CC 13 12 16 5E 9F D2 DE 8E 16 78
 30 9B 64 CE 0A 00 38 EE 0F 55 B1 70 44 68 62 A2
 97 77 6B 73 C3 67 06 F5 C8 D8 4E 73 78 62 0D D9
 2B 81 77 28 1D 06 CA 52 61 C3 4C BE 0E 6B C5 DA
 B8 B2 57 DD 18 10 16 C7 E1 7F AA 39 B2 9D B0 80
 12 3D B1 9C B9 DE 7F 0E B6 C7 7A 00 56 79 BB E5
 E1 F4 83 E8 F4 57 7A 6B 59 B5 74 DF BB 91 4F 0D
 09 A6 C4 BB 20 10 4B 09 8B 38 C6 30 DE FC 9A E9
 8B 1A 04 8E 1C 5A 42 6D 06 D5 D1 E1 44 78 F2 3F
 48 7C D3 56 99 B1 42 31 E7 98 58 72 10 D5 95 58
 46 1C 5E E1 59 78 73 21 ED 6A 6B FB 93 1C 88 28
 C1 78 AB C8 F2 FB 35 3E 8C FF 6E 17 13 A9 27 C4
 87 19 D2 A3 78 A7 88 40 B8 F0 AB 4E F8 21 AA 26
 7A A8 1A 7E CD 4D 4E 34 D3 B8 8F BD 12 AF 9A 86
 01 5D FE E9 97 5F 54 DF D5 1A D4 67 52 DE E5 96
 56 87 94 26 EE E3 76 EB 66 5E 5E 0F 81 41 50 93
 F5 47 F1 E4 E8 F4 C0 6A 69 B1 E7 76 6F 65 79 0D
 F2 8B D4 9C 49 22 54 9E FC 8D 2D 75 3B 19 41 3F
 1D 09 EA E2 1E 9C 4B 61 24 21 7B CB 9A B5 CC 6E
 AF FF 6C F4 BE 06 24 D6 3F 65 FC BB 14 9A 39 2D
 E1 2C 18 72 BD 30 EA F7 F3 B5 35 67 4E 3A AA 45
 D6 13 71 64 0B F2 1C 60 0F DB CD 8D 1F A4 73 14
 A9 2D 1E 8C D4 DC 52 B1 36 0B 76 B1 58 1A 75 27
 00 F5 E1 85 38 DC F8 CB 2C 16 8A B2 D7 4D D5 C3
 CB 0E A9 7B 3D FA E6 0B 0A 28 07 97 EC C1 72 07
 09 31 32 F1 E3 F2 97 2C BE 7E 63 CC A8 44 56 0D
 E0 6C 2D F5 5C 9C 46 D8 64 77 BA 49 D3 9D EC D5
 FA CA 7E 3C 1A 4D 97 12 94 74 EF 1F 44 B4 D5 A1
 7C E6 38 CE C9 3B A1 69 16 4F C2 56 10 97 98 46
 7C E5 14 AB 25 B0 8E FF 52 55 39 95 26 30 94 53
 4E 9A 61 17 4C 63 E8 5A 4A 4A 21 9C 18 B8 63 DB
 43 BF 8E DF 51 AD AA 46 94 EE A1 46 75 68 B1 77
 7A A0 1C DF D9 21 5A BB 06 60 46 C8 9E FB A1 DE
 42 8A 86 A5 81 75 03 B0 F1 6B B5 08 A8 9B D9 53
 5D 24 66 E8 B9 A0 6C B8 60 5D 3E 7E 4C C7 CD B0
 E9 E9 1C 7D A9 76 89 74 E4 76 C4 4F C6 32 C1 7A
 15 8D A3 D4 40 98 F6 7A ED 53 7D CD 02 BF F0 0D
* End 3744293164 500374601