* LTspice Encrypted File
* 
* This encrypted file has been supplied by a 3rd
* party vendor that does not wish to publicize
* the technology used to implement this library.
* 
* Permission is granted to use this file for
* simulations but not to reverse engineer its
* contents.
* 
* Begin:
 81 8B 78 70 34 A9 D1 C2 D5 75 A3 14 47 B9 E8 DB
 7B 74 ED 87 B4 61 99 48 55 B1 F2 F0 F3 CE 1D 36
 F0 0D 66 0E D2 20 A6 17 F6 C1 D9 47 2C AD C7 C7
 0A 0B 60 E7 37 EA 13 E7 C1 BC E1 C7 90 A8 99 90
 31 0D 47 11 AF C6 CE F1 17 9A 9C 63 6F 57 98 60
 7A 85 87 46 1D A7 5C BD 77 F8 F9 79 27 E0 17 B0
 26 8F 94 00 08 5E 1F 2D 75 D0 30 5B 95 0B 10 79
 72 CB F5 D9 0D 17 98 5F 50 59 8A 25 57 7D 93 E9
 56 42 CF BB 74 0D 7A DC E2 1F 1A 1B B0 C3 72 B8
 8E 0D C2 5B 89 75 57 A5 56 D0 05 73 6A 9B 04 42
 C3 04 64 F6 AC 47 F0 54 DC 4F 7A 19 C3 86 0D 7A
 36 43 AB 27 CB D7 E4 23 D0 B2 3A 21 F6 D0 07 E8
 41 D6 C0 39 AD 3F D7 8B 3D 07 E7 F6 31 89 EE 51
 EE 3A 67 DA 10 45 E6 0B A1 24 D8 88 29 24 1A 1E
 69 3F 4C 15 83 5F CC 23 48 39 0A 2A 6B DF 20 89
 9D 62 7E C3 DC B9 43 91 51 8A 42 12 52 5E A1 AB
 3E 1B A7 D8 EF 91 A2 5B B3 B1 45 C0 F0 28 2A F9
 8C 1D 80 AD 72 B5 10 25 6A 70 ED E2 66 55 64 EB
 9F 66 95 35 42 99 43 8E 08 03 5E 34 19 4F E0 D4
 E1 1E 64 AE 54 D5 03 80 09 B5 64 13 B8 A5 17 15
 FB 43 3C E3 F1 E3 A6 90 14 C5 E8 8B 01 DB 28 93
 70 B5 53 82 F3 C7 02 FA 2D 15 60 BC E1 F5 FC 6E
 BD 3C 6C 79 6B 8B 8E 12 C1 7E 2C 82 E8 59 98 3A
 B9 DF D1 B3 74 50 D1 EA 11 3D AC F0 C0 A2 F5 17
 9C DA 72 C1 E8 4B F6 07 5C E6 72 F6 40 42 35 49
 1C BD 66 53 1F 6C 93 35 95 24 A0 B4 86 E8 03 0C
 BE 8A 63 6F D3 F0 29 D8 E5 76 80 32 A8 D8 5D 07
 6A 41 9F C2 57 66 FE EE B3 59 A6 7A 34 8E 0F E5
 20 A0 B4 15 09 57 F1 C2 D6 00 70 02 B4 70 BC BC
 38 F5 9F 19 F3 6C 89 5E FD 2B 9A 5C BD 33 BD C4
 05 9B 48 5C C4 8D 96 D8 05 70 2C C9 97 C5 89 77
 4A 30 20 C2 14 98 9B F0 1C A0 E9 5B DE BE D5 78
 3B 49 D4 BB 84 69 12 25 2F F7 0A 75 4B 0E C4 CA
 CD CC 28 89 58 BB 96 D3 CA D3 46 A7 47 33 A6 D0
 97 CF C6 3F A3 6F 73 F4 12 07 8B C9 E2 91 2C 79
 3F 39 9B 91 A5 40 E6 64 A1 3C AF F4 D3 D5 31 77
 17 5C B7 88 94 68 C4 DD 76 4E D9 90 15 F9 9E 5D
 EE 86 36 2A 43 E1 EC 60 24 24 4E 01 F6 DE 85 55
 D0 BE BC A9 B1 27 A8 DD BE CD C9 B2 AE DF 08 ED
 BA 0E 7C 7F F4 2E 23 73 87 F8 60 A7 58 54 9E A3
 71 A4 4E 16 55 86 A8 F8 BE F2 99 37 BE CF CE ED
 6E 0C 11 78 FC A1 7C 74 7B 37 83 98 58 61 21 9C
 A1 4E 64 AE 23 70 C4 51 A1 7C D6 7D 17 99 B4 06
 39 36 F1 C1 34 D1 C8 80 5E EE D5 DC 06 7C 50 E1
 1E BB B5 E8 75 56 97 A4 64 65 42 1B 98 81 D0 E0
 23 07 28 E3 17 B5 06 A1 E8 12 E4 69 F7 15 89 DF
 FD F0 E4 4A AE B7 FD 5E 2A B8 BA 44 24 38 CD F4
 F8 3F 94 2C EC 0A 3B 24 D6 BF AB B7 E3 72 8F 6F
 85 D1 51 19 A6 A4 2B 16 2D 79 42 C1 A2 F5 C9 74
 A1 C3 57 05 B3 CC F6 7A E5 53 F5 81 EE 41 1B 48
 7E 70 28 14 81 AD D0 C5 8B 1E B5 10 C9 2C B1 8C
 94 8D 0F FC 51 73 11 4A 02 D2 C6 C3 33 AF 8D 54
 B0 72 AC 4E 79 F3 1F D3 E4 F3 3C 69 A8 73 51 13
 81 0C B6 DB 4F 57 13 DE E6 8A F9 5E 5E 7D 2A 8D
 7A 83 38 A7 DE C9 3C 80 D1 EE F2 FB 48 03 15 44
 DC 95 79 ED 9F 09 1A 4F D2 09 23 63 BB F4 FB FF
 F1 3D FB 7B 55 90 2A 1F 3E A4 1F 10 C6 C8 D7 7B
 53 20 35 05 E4 11 88 4F 3C FE E7 64 FF CA F2 47
 AA 65 37 48 F6 B5 CA 21 CA 69 49 5B 2F 1E 10 03
 AA F6 ED 91 5B 37 42 49 5A BB 9B 36 63 34 B1 2C
 76 69 BD 60 7E FA 5F 5C 15 8B 23 27 7B D6 D1 2C
 7E C7 F5 00 4D 69 C8 60 57 C9 C3 E2 8B 80 53 CF
 B0 0A 57 76 73 09 2B 77 AE E9 DE 08 70 46 75 28
 82 86 DF 72 2D 37 D1 13 57 99 75 CD ED 68 54 21
 29 FF BF D3 42 BC 1F EC 3C BA 98 F5 65 E1 E5 91
 11 FC 7F A0 EE DF 00 02 11 F6 3F 58 99 5C E5 AF
 80 65 7A 33 0C 99 9C AA 33 69 BA 3A D4 23 B6 A8
 C2 FB E2 7E 89 BE 86 93 94 0F 3D 7F 48 91 44 CD
 AF A6 87 04 5A F8 3C 69 1D 1F 96 99 EC A0 6A 1F
 E3 2E 76 E9 73 53 44 27 E5 C7 5C 4A 10 32 EA 83
 57 93 55 AC 9C 74 17 79 18 21 7F C5 84 23 7D 5F
 76 54 03 0D 1D 18 D2 CC E6 AE 59 33 42 5A 6B 7A
 BA EB C6 66 12 41 0D 4E 37 4C D8 C7 A1 35 52 67
 12 08 F8 C6 5B 9D 3F C1 9A B6 7B 8B 59 9B B0 C3
 7B 72 22 20 19 02 A7 2E 7B CD 17 F9 64 AD 2C 18
 B9 DD 0A 3D 21 6B 0F D4 6E 81 06 62 EF 5B 5E 0E
 65 3A 4B DB F8 1B 86 A5 C8 72 96 16 37 8C A1 FF
 49 16 E9 52 F9 1B 91 D0 57 BB 1A F7 CE 9F 47 84
 0F 46 A8 E0 98 6B 2D 04 89 C9 C0 A1 10 48 BE 30
 BC BF 1B 13 4B A6 97 E4 FB 7D 5B A7 54 36 8A D6
 E1 CC 19 DA 1C 1D 95 70 CC A6 73 E2 BF 46 3A E6
 E2 2D 39 F6 C5 CB 56 89 A1 1F 9F 15 B9 A0 9A 27
 53 BC 2B 8A B4 B1 82 15 82 F0 97 B2 9B BE 5C 86
 48 DF 21 D4 8D 6F F2 04 C4 AA 43 B8 D2 F4 0A 46
 30 F0 40 AF 19 60 00 0B 6F E8 33 75 A6 19 26 89
 29 B2 60 BE C1 70 08 73 F7 46 60 E6 01 CD 64 2F
 4A F2 38 46 CE 4E E1 F6 54 21 AE A4 0E 65 83 22
 F0 9A 2F B8 8A E3 4E FB 08 16 28 C5 09 6D 6E C6
 A0 2B 29 44 76 47 FD DC FF 9E 31 BE 00 CD E6 3C
 2D 3D 32 00 11 8D EC FD 7E 58 05 1C 1E 0B 5C 19
 36 57 D5 C6 AB 08 B3 14 90 C6 5D 00 26 DD 49 4E
 EE 49 B4 0A F5 CC 9B 77 66 BD DF 93 BB 25 D6 A8
 FE 34 8F AF 25 61 18 9E B5 4E 50 79 2C CB BA 52
 A9 D9 3C DF BE 91 3B C0 B9 FE 31 BC BF A3 5A 32
 C3 F7 2C E5 53 7B FA 1A A4 E2 17 E9 F4 4E 75 2B
 5F 4A 8F 49 82 10 30 55 13 AC 4C 1B FD ED 3B 05
 87 AB 21 75 DD BE 47 E6 17 C3 4E 98 00 06 F6 E2
 AB 50 3F EF 8D 12 BC 0E 56 81 D2 AE 87 53 82 67
 4B D9 D0 29 D3 88 E2 DD 64 7D CA A8 C4 A9 C6 EC
 C4 00 A6 BA 50 D3 36 14 54 63 D7 4D 15 8E F0 E1
 72 8C 30 66 76 1D 62 32 2C BD DA C1 9F 21 9A BC
 60 24 12 C6 37 1E CB 90 D1 3A 29 5B 79 8B 1F E0
 38 A3 91 4E 84 EF 8D F6 3E 61 2D 8B 2A FF 93 96
 06 BA E6 B2 77 BE F5 A5 0B 68 A5 FC 20 C1 01 5A
 01 01 23 3A 03 B6 B8 5B 3A 1D 49 31 3C E2 DF 5D
 44 B9 FA DF 9F 38 3B EC 20 99 34 14 32 90 A8 11
 F6 5C A0 11 F8 20 09 B2 CC 2C E4 B5 7A 41 5A D4
 4C F2 9F 1F 82 0D 4F 73 9A 19 83 FB 0F E3 57 8C
 13 20 02 AF 05 9F 74 46 F2 7E 13 E5 59 2F 0D 98
 48 C1 8C 49 0D EC 72 35 43 30 B7 7E C5 C7 39 9D
 53 FB C4 C3 A7 8B ED 78 7D 8F B3 4A F2 1D F8 B2
 80 91 3B 3A BE BF DE E1 5B 0A AE 93 00 FA 13 20
 FD 76 DB F7 CE C6 C8 D9 08 1B 15 35 A4 EB EF 43
 B6 6A A5 21 20 12 05 05 BB DA EB F2 D4 21 C9 6F
 1C 11 D9 17 ED 5A 03 AD AD B3 54 FD B8 52 D3 19
 A4 A6 B9 E0 63 29 7A 6F 33 E7 5B 53 B0 C0 64 20
 F5 22 A2 E5 E7 7F 1C 2F F0 CB 02 AF 55 85 5F 2B
 E6 FB B3 6B D1 0A CC 68 89 60 A2 CF 99 D3 3C BF
 28 ED EF 47 DA 96 BC 57 3E 72 0E AE 19 5E 60 A8
 67 91 89 B2 4F CB 25 D3 99 A6 33 BF 04 73 08 E8
 A6 5E AD 70 FE 26 A6 48 6B 63 FE EB D4 8B CB 6A
 6E F6 90 5C 7E 38 BD 1E D2 06 73 A1 DE 9E 06 10
 23 9A 8D 9C 8D 42 CA F9 61 AD C6 D1 E9 47 9F 33
 F7 92 89 CF 18 93 74 3F DE B7 86 8C 93 44 82 6D
 B7 C4 C9 04 07 2D 67 67 8D 1C 5B C1 56 4A BF 44
 7C 4A C0 AF 3D 6D 75 9B 2D FE 92 61 94 BC 9B A3
 D2 77 BE E4 41 6B 70 4D CE DB 51 92 BE 83 F3 E3
 53 02 FE 7D DA 52 A5 1C DE 23 03 96 1A BF B1 36
 E2 21 C7 0C FA 3E 7F 32 D9 49 02 DE 73 BE EB 30
 79 7C 4E 86 9E 93 3D 97 16 1F 31 E0 8E DA BE 9E
 15 91 2F 93 63 9C 33 19 E0 93 F8 6A A4 F4 3D 86
 4F D6 7F 2F 49 C2 64 BA 90 27 9A 3A A2 66 B6 DF
 39 21 A0 F5 A4 14 88 3E 87 39 78 3C AE 2F 98 81
 34 F3 D1 10 36 24 D0 C1 77 F1 A2 D1 BA 8F 85 94
 2F FF B0 F1 9A E1 30 BE 7E 96 82 8A 12 97 0D 78
 FA 77 87 F7 E0 D2 4F 33 A1 A3 05 DF 61 4C FF A2
 A6 08 CF 5B 2B C0 29 B9 9F 5B 67 7F A0 E4 C2 1A
 07 63 EC 3B 7C 01 25 FE 6B 5E F5 D9 92 9C 9D 43
 6D 84 66 5A 23 19 E1 CA 92 07 F9 C8 49 27 1D 6D
 25 00 13 04 3C 65 C2 85 60 58 B0 ED DF 07 95 FC
 42 76 98 3B 8D E7 BA 7A 8F 0B 97 F0 A5 29 F9 E3
 2A C6 2C 64 42 CC 04 81 B5 FD BF 27 F2 0A 95 E1
 0F E0 15 91 34 F7 7C E5 67 9F 55 10 A7 06 C9 54
 2F B6 4D CB B1 60 1C 45 85 A6 D8 7D 25 8C E2 66
 ED 6E A0 C6 85 02 84 B6 35 E7 AF E2 72 6E D2 52
 02 5F E9 03 A5 EE E3 79 8C 95 C0 A4 EB EB AE 49
 A7 D8 C9 94 23 F0 E6 EC DA 0A CE E5 76 61 C1 42
 E9 15 47 9C 2C 97 C6 63 92 FD 71 66 C7 40 B8 6D
 90 D7 25 25 0C FF 2B 1A 7F 0B E0 74 3A AF 69 16
 BA 55 D7 48 C7 D1 30 B5 A3 8E B7 58 47 38 50 54
 53 32 0F D3 3B 86 1C AD 21 46 26 D7 19 24 AB F0
 75 9A DA C9 57 3D 3D 07 6C DC 16 06 49 C8 7F D9
 31 07 9C B1 89 0E 02 03 B6 01 31 19 1C B8 AC A1
 AA 2E DE 6F 0E F5 2B D1 1E 16 9D 73 23 B4 87 43
 14 82 A7 41 D1 FF 94 E7 42 A1 64 45 BB F5 3F A0
 1A 25 BC E3 CA 88 85 B7 32 9F EC E6 3F 7E C3 89
 48 93 A9 24 4D E5 FD 98 BE 71 BA 39 56 A0 A3 AE
 82 5D DA 97 71 3A F5 CC A3 D4 94 3C 35 DC 0C D8
 C7 4A F5 0E B2 0A E6 E3 17 63 9E 7C AB 40 C2 91
 39 0C 60 81 2B 37 B7 36 75 A3 D7 A1 E4 1F 3D AF
 6B 24 D5 B4 91 26 B2 75 90 76 CB 12 98 CC 8B EF
 E9 99 3C 91 8A 86 A5 8A 80 94 27 B8 3A B8 64 46
 43 46 F0 83 5B FD 8C 40 FD DB 81 60 27 8D 8F FD
 9A F9 BF 79 50 6D 20 20 52 C1 AC 68 1D A9 0A B7
 D3 5D 86 74 B3 B0 4E F1 71 2C CC 7A 28 C9 63 A3
 4E 55 92 47 E1 52 69 33 A0 0A 3A 4E 0A B3 1C 66
 E3 28 29 54 F3 38 12 78 21 C0 CC 81 D5 CC EA 03
 A1 64 69 AB B4 60 F5 02 45 58 62 54 83 B9 8C 28
 D0 41 50 52 9B 2B E0 87 EF 51 4B FD B8 98 D0 CD
 65 E5 A9 EE 01 4D 19 EA 55 6D 50 EF 83 B7 55 03
 B4 82 F9 A3 30 05 C3 01 6E 13 77 51 3A 41 B1 32
 B1 A7 E3 0B C8 57 90 5A A7 83 94 41 9C B8 F1 51
 DC 12 6C C7 28 2C 3B F1
* End 1496945285 2354837937