* LTspice Encrypted File
* 
* This encrypted file has been supplied by a 3rd
* party vendor that does not wish to publicize
* the technology used to implement this library.
* 
* Permission is granted to use this file for
* simulations but not to reverse engineer its
* contents.
* 
* Begin:
 5B 27 B0 32 BC F3 58 EC C3 45 18 3D F7 4C 9C 76
 B7 C9 71 33 78 5A 96 30 98 9F A7 02 9E A6 BA 8F
 7A CC 3B B9 D5 C3 92 26 84 16 56 3E FE 44 48 6B
 57 8D 6E 90 C8 00 89 0D C0 48 1D 4F CD A9 5F CB
 A4 A3 41 65 FE 1A B7 82 A3 ED AF 3E 4E 69 40 B8
 9A 80 13 3F A6 A8 FB 3E 7A B4 A3 F2 7D BD 72 30
 38 3B FA 29 1E 13 3B C3 2A 95 B3 78 1C A1 DC D3
 34 B0 C7 29 76 5A 21 26 55 6A 0F 11 FF A0 DE 76
 4B 20 DD 54 92 D1 77 9B 42 44 79 F0 D3 D9 2A 61
 CF FC E1 DF 40 43 EB F9 24 E9 A6 8D D4 F3 15 AA
 19 D5 C3 91 B6 77 75 9F A4 0A 36 29 1A 83 43 9D
 51 F5 3C 5A 5C 6A 38 8B 3F 91 B2 75 8B 88 F7 29
 FB B5 33 68 A6 C1 01 09 92 9E 39 DA 13 4C BC BF
 93 AB A5 E6 64 16 6D E0 98 A5 4A 10 76 91 2C B5
 58 40 05 A0 E8 6C 95 58 2C 28 93 82 ED 14 F7 C1
 DD 4B 81 77 D2 31 6E 40 B0 39 66 05 3E 79 18 04
 52 88 59 25 DB DF 69 9C BE 02 9B FB 91 70 E1 D6
 28 5E BA 7E 4A AA 8C 3E 99 2A 3D 0E 8C 16 EC 13
 B4 5F F2 BE 3B 96 79 92 B2 7C 8D DC 99 F0 3D FC
 BC F7 E6 B9 FD 51 E7 03 9A 88 43 4E 28 B3 B7 C5
 00 30 E7 28 CE A4 AA 03 15 ED 95 FE B5 14 CD 89
 0B DE 5E 9B 08 22 44 9A D2 22 2C 25 44 D0 07 84
 6B 96 40 7A CD 7D C3 6D 46 16 54 B2 FD 99 58 B2
 1F 4D C9 B0 2D 1C ED 9B 7E 7F 0D BA 57 FC 05 3D
 F5 0E D4 D7 EE F3 80 1D 6A C1 39 EE 1C 8E 14 C5
 9E A0 F2 05 0A 1E BF F6 C4 99 0C 6E 63 35 2F 9E
 0A B0 F8 BE 62 BA 47 74 29 5B 74 00 6B 82 1F 84
 BD 6F 81 BD 6E 8C 61 DB A8 CD ED 89 A8 C2 C6 B5
 72 A8 A6 9A 84 6B A8 57 08 29 47 34 86 C0 B5 6C
 A8 C5 50 7C A5 4F 51 F0 64 88 AD E8 02 5E 0F 8B
 D1 F6 9D 21 F8 4A 37 A4 DD C2 D9 19 42 C6 78 D5
 DC 8B C6 A0 D4 4F 68 E2 69 D7 92 9E 8A 7F DC 57
 D5 14 92 7C 4C DD 6C AE 03 36 A8 D6 48 14 B6 C5
 85 F1 C2 0D AE 1D 89 48 F6 A2 9D F6 59 85 8B B7
 46 C2 3F EF DA 06 F5 BA 17 A4 7E 8E 54 1F BC D9
 17 A6 B2 1E 64 78 AF AD 45 EC 0D 1B DA F1 CC 69
 C0 29 D9 E0 18 76 AC 42 59 BA 30 D8 DA 66 D9 1A
 4E DF 5B EF CB 7D 47 C5 0A 0A A7 7A 43 7F D0 77
 74 90 51 E9 D5 92 65 DC 81 C8 94 3E BD E3 27 7F
 AD E3 81 DC 8E F3 D2 14 3E D3 89 F5 E9 29 6F B4
 BC AA BC C1 7D 91 95 BF 1D 2B 0D 9B 9C 74 20 DC
 1C 5E 0B EE E4 3A A1 DF 8B F8 77 2B 10 9F 55 E7
 F7 61 A3 F8 9F 7E 58 DE 89 95 D1 76 81 7C DB E9
 10 09 CA 7E 55 B5 41 30 6B F2 CD F1 7C 7D D0 48
 5D C0 08 3D 24 48 5B 19 B8 59 5E 7C CC 7B E2 53
 CD C0 32 67 D5 94 8D 96 51 FB FC D7 52 2E 64 31
 88 7C D0 CD FC DF DD D1 02 12 F3 A5 74 3B D7 7C
 36 79 99 DC 0E 69 4E 1E 91 27 17 D4 B7 CF 09 DC
 F3 E3 4A 8C 9C DB 6E 5B 71 9A F4 BA 28 4A 01 38
 AF BC 69 FA 66 12 A8 14 27 73 73 59 43 D1 42 D3
 69 F9 C8 03 11 24 F3 7C 34 51 2E 37 44 66 17 2D
 2C 8F 6F 5E 49 AE 04 66 BC 80 FF 49 37 BD E2 81
 7C A2 2C 37 34 FE 04 0A F8 4C 71 34 72 1E 87 B8
 A0 A5 DB 52 81 38 A6 8F 81 0C EC 99 4F AB 1D 18
 56 25 D1 60 EB 5C E7 66 89 04 2C ED 31 80 77 B5
 49 25 03 3C 14 D5 48 46 93 BD 88 09 9E 67 5F 10
 25 27 EA FC D5 EC 40 1B 47 FF 2B DD FC 34 DB 89
 5C 28 A8 86 9C F3 21 C1 36 16 E4 C3 DE C5 E0 10
 C8 10 B9 82 92 C1 DC 1F 60 2D AB 21 29 0B 89 44
 4A 06 04 2B 86 3F 9B 6A F9 B7 B5 AF B9 04 94 6C
 99 A3 F3 6A 9B 15 82 78 06 57 9E E1 2E D2 50 5C
 E3 1B 31 CA 7C EF E9 5E 40 4E D5 92 1D AB 4E 5E
 35 08 D3 55 38 84 64 10 20 F1 8F D6 D7 1F 2E 61
 B3 62 79 8E 20 60 61 59 E1 98 84 13 FE 91 3F 07
 21 1F B2 96 5A C5 0E 34 24 A4 48 F1 96 BF D0 27
 A0 9C CE 90 62 B6 90 5C 1A 2B B1 B8 EE 5F E8 D2
 E8 7E 16 4E DF 99 2F 89 86 BD 89 F8 70 24 B0 C5
 E9 F3 14 25 6F 5C 2B 86 E8 D4 EC 7A 0E A1 7D 6B
 E5 03 A6 CB E9 37 94 FC 00 6D E3 67 F2 91 2B 75
 F9 8C E0 D3 4A C7 23 4D D4 F6 8B 83 08 FD 8B B9
 26 E6 B9 3E 55 07 30 33 D3 35 2A 57 10 5B CA B6
 0A C5 5D 09 21 40 10 3D 52 7A D2 D9 D8 03 E5 48
 D3 F4 B7 1B B0 43 D5 C6 1B 55 32 D1 9C 78 5D 12
 0E 93 89 28 D5 BF D8 B7 9A A0 99 1E B5 09 1F 6E
 E9 0B 9F 75 F0 AC E0 0F 52 4C 20 52 73 57 5E 57
 15 59 CF FD 84 3A 67 AD 8A FF ED 1C BC 54 F5 93
 01 ED 9F 99 77 42 EB CF 5F 32 E1 17 4E 7A D5 C3
 37 3F 1F 44 20 FF 8A 7F 30 3D 91 59 75 7E A9 1F
 86 4B 7D 10 8F CD 6E 56 D0 FA 16 E7 8D FB 3B EE
 86 84 06 8C F9 C9 1D C9 AB 30 5F 41 05 76 EF CD
 F4 CC 06 84 92 2C EB 43 1C DC 02 E0 82 AD A9 8D
 D6 E5 63 25 83 47 2A B9 AC 66 5E E2 42 D5 FB BA
 38 BD F0 85 92 83 A0 07 74 82 5B 35 59 8F D5 7A
 AA E1 D5 F8 DF B0 44 53 FB 99 76 34 5B 7F 31 02
 C8 E8 40 AE 2D 9E 0C 13 F7 55 6C 00 A0 A5 16 4E
 9A 14 05 8F 5C E6 76 1E EC 37 43 3F 17 08 DA 84
 52 CF C7 DF 3B E6 A0 5D 03 F2 5B 3E 94 C7 FC E9
 49 D3 F4 2D 99 AA 92 F2 E2 9C FE 97 39 A2 E4 DB
 74 4E FD AF 91 97 57 5F C0 01 04 C5 3C F1 22 62
 DD 38 8E 68 7B BF A0 95 38 07 A7 9F 16 A3 19 A5
 92 6E C6 20 54 2A B8 2D 63 D3 F8 5C 9A E6 27 D6
 3E 1B 96 C0 93 F8 A1 DC 50 5B F0 05 91 41 94 79
 EE 40 F5 8E CD 07 F6 1D 3D 5C AB 03 83 94 A8 BF
 52 78 CF C3 96 24 A6 30 95 F8 95 B1 0E 9F 12 2F
 47 92 F1 5F 21 88 B0 EE 73 0D 32 E4 28 B3 83 55
 0C F2 55 13 1E BF E9 9A CD C5 C5 8D BD F3 17 BC
 18 BD 8C 49 AD D2 37 A1 3F 7D 77 21 01 E7 D1 C9
 50 45 E5 6E F0 FA 01 F7 C9 23 27 D5 70 BB D1 42
 D5 0E A1 A8 AB CC 4D B9 D0 64 87 39 08 B5 40 DC
 90 2D 1D B2 88 90 8C 6E C7 E1 B9 77 47 C5 00 D7
 A7 6C DE 57 A9 0C 49 EE 8A 6E 72 E2 7C 28 55 2F
 B9 99 7F 93 36 B1 C4 C3 EA 07 BA 59 ED 84 4E FB
 AB 86 27 A4 29 DA DF D9 B5 18 45 E0 15 B3 C7 7D
 41 1C E5 7A CE B8 EA 37 05 72 28 0B FC D6 C9 4A
 7E 4B 46 BA 99 22 C2 2A FA E9 C3 70 D8 EE E5 C7
 D6 CF 68 97 86 EA E2 05 86 B2 A7 F7 2B 3A 5D 31
 1C 60 52 9A 3A 76 18 49 22 38 69 66 B2 FB 77 6E
 97 43 87 53 2D 8D C9 69 58 4F 86 EB CF 10 AD 33
 1F 55 5A 10 22 FA 2A 1A 86 7F D9 BD 15 81 DA 2F
 23 6D 57 30 54 8F D9 D1 DD 58 70 D7 91 2D B9 21
 F0 63 94 BA BF EC 5C 47 A5 77 D7 2B 20 25 FD 5C
 56 72 59 91 DF E1 4A C3 98 2A 1D 89 6B F1 3B BD
 D3 59 46 0E 2C FD B7 66 F9 14 6C B3 97 9D 5B 93
 62 21 B6 57 33 2A E7 0E FF EC 50 D1 38 88 52 79
 97 21 37 15 89 60 F0 7E B2 EE 66 D6 5B 11 86 D9
 5C 22 65 06 7A 2A C5 AA FF 41 C9 62 08 AE AC 26
 A0 1E 34 E1 FC 6C AC B2 4E 5A 84 27 03 F6 BF 10
 BF 4C 44 23 ED 55 22 9D 77 B5 1F 9C EE 86 16 27
 C5 37 6A 88 5B 73 AE BE F9 49 19 FD CC 8A 95 80
 66 C4 91 E6 94 7C 7D 3F 06 F7 4A BD A2 D2 8C BA
 F5 70 48 BF 27 3B AF D0 CC 01 14 59 BD 9E 41 A0
 43 C1 D2 79 15 55 56 C6 C6 0B DD 6A 2D 88 88 C0
 E3 54 FF F3 C8 DF BB 81 1A 29 B5 53 30 6E 34 D5
 74 D7 19 02 87 AB 28 B9 42 6E 29 0B 47 04 93 D5
 91 B0 4E A4 02 B1 29 86 10 CA 94 ED 40 5D CF 03
 DB 63 32 21 53 C3 13 B8 08 94 9A BE 66 D2 37 A5
 5B E0 FE F4 68 72 85 E9 C0 F4 32 70 96 42 86 A0
 3C 28 D1 1C 32 32 B4 B4 F2 1B 4C 4A F9 8F 24 43
 61 F9 8D 56 E5 BD DA 4E F6 46 C6 F4 50 5A 8D 8F
 F5 5E C6 04 55 A4 4F E5 68 29 E1 C6 20 69 6A 1D
 31 17 14 64 B2 AD B2 19 A0 E0 DB 83 15 65 A4 32
 FC 67 3B 1E 2A 01 54 74 3D 01 2B 6C 5F 98 1F 5C
 85 96 62 1F 50 54 F7 6C 6E 4E 74 FB 21 BE BA 6E
 B5 FA AB D0 65 30 CB D5 BE 10 27 4B 4A 59 CF 1A
 FE A0 E4 DB 11 2A 97 C8 BC 60 94 C6 12 EB F5 DD
 1C 31 E9 47 9F 4A DF 99 4E FA 71 0D 82 91 44 B6
 45 81 68 0E 23 BB 5C 5F 53 02 45 00 44 3E 92 7F
 A7 A1 CF D9 D5 83 96 20 93 58 53 61 59 71 51 B5
 26 C3 10 38 E6 66 D1 AF 6E 66 61 EF DB F9 60 89
 AD C7 8D 13 D4 D6 E9 9C E6 C8 7F 4D CD 9A BD 1E
 8B B9 EF 11 42 1C E7 27 1D 63 4D 95 80 99 A6 5C
 B1 F4 39 16 6B 49 55 76 A9 B4 59 B3 8C 8D 61 3A
 56 C7 7A DE 10 8D 7F AF 9D 4E BB C7 5E 2D 9C 24
 3F F9 5C C3 78 8F F6 C8 73 DF 34 38 D9 E3 5C CA
 A9 4C C2 A8 C4 67 5A CD 25 19 F0 BB 7A 0A BC 4E
 71 F4 3C EE C0 C7 16 67 0B 39 04 45 1B 42 94 EF
 6F 2B D1 58 36 6C B3 17 EF B1 95 54 A0 EC 1F 28
 63 2C 24 12 DC C0 FB CD 9B 8D 8F 5C 3F 95 CB A1
 70 EB 0D 18 48 AA 1B C7 A3 96 C1 AA 46 F3 75 88
 66 E1 08 1D 44 92 6F D2 01 44 3C DE E4 AC 9A 7F
 39 EC E5 03 A3 55 96 46 79 C6 13 FF 2C 98 C2 E4
 E0 2E 7E 05 3F D4 9E 0B D2 AE D2 BA 1B B9 D5 C4
 78 00 54 D0 7B 9C B2 95 A4 3F D8 79 61 C4 D5 C0
 F6 18 D8 9C 31 33 6B FB 91 54 CA 7B AD EF 98 02
 D2 F6 72 BF 10 A8 C9 35 71 3C 47 3C 5F D8 8F 3D
 13 54 04 70 25 B7 12 E5 8D BC E5 2C DC 01 14 75
 97 F4 F0 84 14 44 8D 4C 7E 97 A4 BD 28 FE 2F 61
 8D 2D C0 E0 32 EE 55 55 ED ED DA E2 08 17 4F 84
 D8 71 C8 92 65 0D DA CC 7C 8D 2F 8C D0 45 E5 DC
 E0 F7 12 8B E5 C4 61 71 03 9D 84 D9 A3 DD 5E A2
 0D 07 22 60 3C C7 A4 66 7B 54 E2 45 84 5C 64 46
 FE 1B 37 32 6D B5 5E 44 04 6F 41 19 CF 9A 7E 99
 8C 78 61 D5 21 D9 20 85 7D 5A 7F F9 5A 68 47 C6
 33 43 8E 3E FF 12 7C 2A F2 6B 1D 4A 9B CC 92 97
 4E D4 D2 13 70 63 8C 83 55 55 F1 84 83 35 90 3A
 87 11 2D EE 40 99 C5 DC 32 D6 0E 50 BC C2 F9 B3
 28 48 DF 81 83 5D 42 47 EB 33 41 9B 90 56 88 DC
 0F B4 7B 88 C6 E6 E8 20 FB 0D 5E 10 BF 3E A2 E3
 C1 47 56 72 7B 22 96 26 E3 09 12 AA 57 3E F5 72
 2E 81 82 C1 71 B0 BB F8 D1 04 CB E6 36 9C 07 DC
 6B 85 D8 CF CC 0B C0 C0 3E C4 00 D5 C6 AF AB DA
 D7 C8 27 61 7E 7F 08 33 08 56 F9 05 E3 52 60 FE
 6B FD AC CF 95 61 BA DD 0B B8 C6 02 89 34 D4 66
 31 5F E0 76 53 42 A4 04 CA F3 33 BC 91 38 48 B7
 1B 77 1A 37 4C 40 13 4C 2C F3 6D 78 54 67 0B 47
 14 D0 E0 62 A7 66 2A 4D F0 A9 66 D0 A0 4F 5F F4
 B9 F1 DC 17 D5 D6 0C 0A CE A3 31 A2 F8 CF 6C 14
 71 BF 93 B3 C6 57 E3 FB 90 D2 F1 95 2E DA C1 04
* End 2935675507 947120875