* LTspice Encrypted File
* 
* This encrypted file has been supplied by a 3rd
* party vendor that does not wish to publicize
* the technology used to implement this library.
* 
* Permission is granted to use this file for
* simulations but not to reverse engineer its
* contents.
* 
* Begin:
 AA 52 3D 2C B6 AA C3 6D 97 1B 1E 4E 98 15 98 1B
 9E 11 27 F0 63 62 6B BD 98 F7 C6 4C 14 92 07 06
 59 6C DE 45 1A AB BB 98 29 CF 44 BB B6 FF 4E F8
 C6 A8 24 87 B4 29 5B DE E1 24 37 F3 09 18 C2 ED
 86 C1 44 8A F5 AF 01 D0 C9 01 56 D0 BF FA 40 47
 62 13 D1 15 ED 0F 33 F5 98 95 43 77 B3 C9 1A 9D
 37 31 A5 11 55 03 D0 A5 A8 06 27 D1 B5 59 68 CE
 53 BB 7B 5E 20 7C 86 58 08 75 5A AD 25 46 83 10
 6D 72 FD DA 28 CD 2D 59 4A AA D5 18 DA 65 C3 59
 E4 2A A1 74 83 5A 7F CD 4B 8C C4 5E 17 9E C5 EF
 A3 79 81 BB C0 1B A9 D7 62 B0 4A E2 13 AF B7 FA
 C3 2B 0D E1 D3 83 60 CC D8 6F 5B 1D 63 C2 71 D3
 F8 F7 02 60 08 AF A1 43 93 C3 45 19 7E 61 C0 CB
 0A 60 6B E2 F0 76 41 18 A8 7A 08 A5 73 38 7C F2
 AD E8 6A DC 00 13 54 3F 49 A3 45 EB B3 2D 3D 58
 23 8C CB 23 77 6D DD A7 8C 7C 5C 4F 26 89 12 17
 07 F3 3A C6 3F CA 50 66 76 42 68 D6 16 2A B6 4D
 CC D1 8D 65 AE D3 A7 3F 65 7F E0 D4 94 FB A2 4A
 C1 E3 4E C6 FF FC 7E AF 63 18 F3 5F 08 AC 86 CA
 31 DE 2A 1D 77 5C 67 40 AF 80 E1 61 27 3E D5 4F
 8E 6C 70 4A 09 3B 96 AD D7 98 28 2F A6 13 D0 AA
 AD 80 AF B8 52 9C 74 70 51 FA BB 0E E3 57 E2 FB
 12 AC F9 A6 D2 80 B1 C7 DE 5E F4 51 30 3E 92 61
 EC 6E AC 6A 1A 16 4C 06 60 55 64 0C 32 47 3E B8
 76 3F 4D 72 FA E9 8F A9 D9 19 ED 4A 91 B4 E4 1A
 63 E1 45 30 F4 0E A4 AB 03 B8 EF 85 29 14 39 86
 EF 16 2F 28 C6 A4 FC AB B4 29 28 7B CB 8F 34 E1
 58 25 C6 53 36 42 EE 95 E1 D1 BB F0 9F 85 22 86
 82 77 CD D2 83 FF AE 5C DB 1A B4 75 BC 53 32 55
 B1 AE DD A8 50 8B A1 5A A5 AF F6 81 BB 01 8C 4C
 C5 9B E1 A4 BF 08 47 87 81 F2 1E 97 2E 8B 1F F3
 2B BE 39 70 95 D4 16 03 F0 0A 8B C7 BE 82 E3 15
 6C 91 E9 0F 34 3F B3 DA 0D 11 94 45 F3 23 56 36
 94 3D 7A A8 AF 65 D2 1C 5C B3 87 B5 40 E0 C9 EF
 88 44 CD 89 BB B1 CD D9 58 8F A1 75 05 0C 90 86
 1C 34 4A D2 DF F1 49 8A 67 76 15 6C 50 56 5A DF
 36 AC 50 68 80 AD 70 BD 44 16 F2 C2 4E 12 C6 8C
 95 F2 C0 F6 0E 81 EA 43 3A 52 C8 6B 44 17 72 69
 1A 46 ED 42 5F F3 66 BC D2 04 FA C1 3B 44 B0 94
 D1 5A FB 7C 8F 8C E0 79 16 9E 8D 4C A6 C1 04 83
 7F CB 01 E3 3D 84 AB 6C 3D 23 F2 44 F1 36 6A 20
 A8 DB A1 5A 7C 83 F5 E4 6A 92 3D F5 8A 12 BB 65
 9E F8 FD 2D B8 E5 A6 0C 28 1B A1 E5 89 F9 25 A7
 E5 4E 1F C0 54 24 54 29 A0 3E 88 11 5A F2 5F C8
 A0 9B B9 A3 CD 8B 86 8A 13 6F FD 10 74 7B A6 A0
 5B C3 02 A3 C6 8C AE B2 0E F6 83 4A 3D A3 77 6D
 DE A7 3E D3 0A 04 DA CD 66 BA 3A 4B B1 B6 E9 9F
 E6 3A 59 3A 2F F7 BF 48 B4 99 6B 32 13 11 8A 6C
 8C 4C 67 1D 6F 05 90 3A DE 7F D1 3A 91 3C 1E 7B
 27 90 08 BB 2A 44 5C 87 9B 8A 12 7D BA 29 1F 51
 30 A5 47 1C F8 7A F7 D3 3B C7 0C 98 89 FF F8 FE
 40 E5 D8 66 F0 33 CA 81 C1 85 B5 1E 4B 5F 14 B4
 3E 7B E8 B1 29 6C 44 F7 64 73 4E F9 D4 15 A0 4E
 49 76 65 7F 19 98 09 EC 28 05 4A 15 EC 17 DD 29
 EE 22 2D 35 EA AF DF B2 3B 6A 08 82 70 6C B4 C0
 22 16 01 7E B5 80 F9 31 2E 38 48 B4 EE B2 37 E9
 20 41 51 8C CF 0F 59 B6 33 07 DA CA 26 9A 84 04
 58 EB 98 54 C7 E2 44 F6 08 5D 7E FF 98 D1 44 07
 6F AA 4B 14 F6 D6 AE AE 2B 6E A5 61 BD 33 62 93
 1D C7 B3 12 AB 0B 64 42 56 2A 53 8E 96 2E D5 79
 46 87 0B FC 40 B0 B0 1A 58 05 71 CD B1 FD 74 A3
 C1 02 7D 82 0E 5F AB 2E 64 36 E2 8D 75 11 DD 57
 4D 26 6F CE 02 55 B8 DE 76 CF 67 04 20 1A 3F 88
 7A F9 5D 64 0D 43 09 57 9C 14 9B F4 F4 E1 3B F4
 06 DB 7C DE F4 65 8F 0B 9A BB 83 23 04 6E 70 4F
 70 D5 EA FE 04 7C 06 DA F2 88 2D B6 8A 93 47 CD
 F4 BF 4F A7 E5 19 E3 46 56 27 44 87 EA CB 64 3E
 E0 B4 D3 1D 8F 87 B5 D8 67 0B BB 70 CC D0 79 B2
 FD 89 B0 27 65 22 7D AB 7E 58 32 5C 2F 2A 6D 88
 67 A5 C0 1B EC D8 F0 FD F9 4B 4D 85 01 28 17 29
 0C 42 F3 9C 3F 8E 29 FC B5 5B C8 D7 66 F2 28 C2
 BC 18 84 01 9E 13 3A 83 B2 16 A5 4C 8D D7 5E 7C
 9C 3D D4 C5 A0 98 C2 7D 8B FA ED 4E 78 34 D5 3E
 3C 41 EB 88 6B 20 2E A8 7B 4B 88 BD 22 80 85 24
 79 35 5A A1 C9 6B 97 40 19 1E 8C 9F 64 33 5A CD
 DA 9F C1 23 80 9C 35 50 4D B6 DD 8B 63 5F 25 29
 18 37 74 75 62 9D EB 84 02 24 92 2E B9 38 E9 B9
 35 73 4A 49 45 B8 F7 43 AD 4D 76 3D D8 41 ED 7D
 B4 70 FE C4 9F 74 AF 71 3C 48 3F 42 74 2B BC B2
 47 A3 B6 13 CB B6 15 A5 3B B7 EF 23 54 71 DB 5C
 E3 0C 6F 28 9A 29 4F 56 C0 75 E8 08 D9 F3 60 A1
 6C E1 CA DD 91 9F 4B EE F2 4F 60 16 C2 D3 22 C0
 D5 0E 21 35 AE 97 C6 EF A5 B7 AC 9B A6 1B B8 50
 51 56 CC F6 32 77 1A 93 EF B2 F5 8A 16 F5 A8 A3
 7E 22 88 89 F1 33 33 F5 08 18 18 3C 10 01 E2 43
 99 61 D3 08 C5 4A 25 AA 66 6A D2 16 8E 03 B5 B0
 C4 12 06 D4 6A D9 D5 F1 10 37 AA 0C 6D 9F B3 4A
 F2 7C 74 9B F0 C9 42 5F FC 5A EC 72 92 CC 83 5B
 68 72 C9 46 5E 7B 15 CD E4 23 17 94 3E 6D F5 07
 11 8C 8E 68 EB 26 54 AC CF 15 91 63 0D CB 26 E6
 0C AE F8 6C 60 5D 0C 5F 34 A9 16 6E B4 0E 59 B1
 2C 22 1B 6D 0C 94 4F F3 84 6A 5B 4D A9 86 3A EE
 20 37 4F DA 39 49 65 63 8C 82 D0 91 89 59 31 E1
 3A 02 79 3E C3 A6 1D 78 9F A0 06 C1 35 A0 E2 1C
 71 D1 87 91 5A 82 8A C3 61 07 88 09 BB 7A 79 F9
 57 AA 4D A4 B8 ED 92 C9 F0 3A 50 CA FE FC 6A 8A
 35 31 11 6D A8 33 AC 68 2D 98 26 24 93 50 E1 27
 A0 3F B9 BF 80 EE AE 70 E8 37 D3 3B CB 7C 21 33
 1A 0B F5 52 58 B9 41 9B 30 6E B7 83 71 89 FE 8F
 0F B5 D0 40 FD A4 60 D8 13 BB E9 07 8D DE 5B 27
 9E D4 A4 B4 32 3A CC B1 25 C3 CE DD 7C 09 67 E4
 19 6D B8 12 07 EF E7 F7 42 B7 61 8F 13 E6 4A 98
 C1 1F 16 8F FC 07 BB FF E2 E3 A8 AD BE 4D 06 5F
 84 C6 46 8D 16 29 A6 22 90 04 29 36 B7 DE B8 48
 03 0E 56 BC D2 26 95 EB 25 9D 5E E9 E1 2D 09 B9
 57 60 70 7F CD C5 B4 7D BF 21 AE 2F 7F C1 42 B2
 9E 91 E9 99 0F EC CF 21 90 C3 D8 DA F0 23 BC 90
 93 0B 74 5D B9 00 BA 49 D3 70 A6 DD F4 B1 5A 28
 F0 FA 7C BC 52 E7 6F 5B A4 E2 C0 85 19 57 C9 E2
 BE 69 A0 85 A4 80 FC 54 82 EC BC F2 17 8C 23 13
 25 69 33 7E 70 7C 0F E7 46 ED 80 1C 28 54 38 B8
 33 8F FA 75 B1 33 EC D5 A6 46 69 5D 76 9F DD C4
 0F 37 7B 2D 5C D9 49 48 B3 3D 4C 46 6C A1 89 2E
 B2 70 EE 3E 94 25 DF EC B5 5F 19 D0 7D 6A FD 35
 65 18 F6 D6 F4 A4 45 D2 1D C5 ED 52 E6 01 D8 FE
 67 28 B5 CD B2 42 30 D7 51 E4 34 9F 19 21 08 43
 4C BC 4B D0 8A 1A 64 A4 B5 8A 0B 34 FC 35 BD 8E
 59 BD CD 5A 1C D7 AA CB 26 4B F4 34 C0 BD FC 7F
 1B 16 00 BC 7A 82 A3 7B 54 F4 E1 46 1F 4D 42 5F
 0D 0D 3D 25 B2 42 59 FE E6 C3 95 17 BE 97 D4 C6
 19 DD E5 CF D0 49 DB C2 06 7A 6E 7F 3E 63 2B 02
 3E A5 27 C2 63 15 5C 01 F6 9E 2F DB 18 1E C9 16
 77 56 E7 DF 95 F6 0E 0D 8B 0A 7F E5 2E 12 B3 5E
 6C E2 31 E4 EE E2 11 17 B8 41 40 17 DA E5 F6 D5
 17 A3 86 E0 CE 65 EC 53 3A 3A 63 13 39 0D 5E 26
 8D 3A 79 10 2E 7A 6D DE C8 E2 8F 48 72 46 F7 A8
 05 7A 00 49 48 54 AE 6F 8B 7E 61 10 6A F3 9B D9
 5F 85 8F 27 AF 07 19 0E A2 AB E4 17 FC B6 1F F8
 59 94 50 8D 5D 2C 62 86 28 05 8D C6 7E C9 15 B5
 FF 51 8D 32 0A 2D D3 94 92 EA CD 8D B6 6C 7C 49
 FA 71 89 47 BC EA 89 CE D7 FC 15 C2 9E 7F 59 37
 9D A7 9E AF 77 54 D8 55 C6 2B 37 D7 64 A9 CB 20
 55 B5 C4 52 34 F3 47 27 5C 5A E0 C8 69 37 05 49
 34 7F 3A CC 77 BA F7 F5 67 07 5C F6 B3 FC 7A DB
 3C 8D 96 52 20 EB 1F 3D 73 B0 9F E2 A4 67 C1 2F
 FE A7 6D 4A F8 3A 72 AC C6 ED 44 C2 18 4C 0D 9A
 89 FC E8 F6 83 4D 3A 1C A3 4C AB A2 07 68 02 5A
 63 7F 6E 1A B6 5B C0 D3 75 90 0A D3 A9 B9 FE D3
 B0 29 85 BA 47 1E C2 65 34 6E E2 C4 1D AE 76 6F
 44 DF 5C C8 41 35 6E 82 C0 A1 0E 7A E4 44 3F AD
 FC 6E 0D BF 3E EF 9E 3C DB 70 09 B0 BF 7B EA 7E
 30 65 5B 36 B8 18 29 55 D0 28 F4 FF 13 5C 01 8F
 DE CE 17 22 F2 2E 6F B5 41 EB B2 16 7B DC E5 41
 D2 32 E3 B9 3F 84 26 27 EF D1 D3 14 83 53 59 DE
 91 C0 1A 2B BB 4C 86 AE DF 60 D2 EA 80 32 94 0E
 D2 1E E1 65 0B 5E F2 4C 9F 87 0B 35 19 6D 05 B8
 1B BD CF CE 8E 79 65 FE 9E B0 DB A3 A6 8B DC 7D
 8B 90 EB 65 91 B3 4D AF 35 7C 4B F1 BA 0E 87 89
 88 4F DD C8 4E F6 AD 21 5A 41 DA 3F BB 28 1C 8C
 19 2F 82 A8 30 3F 2C 75 70 ED 07 1E CD 32 B6 0F
 56 40 01 19 24 77 20 92 AC 5D 0D 81 FF EF E7 10
 13 6F 0F A4 D5 D6 85 F7 0E 43 24 8C D5 D5 A8 4A
 96 57 A3 B4 B1 D0 54 6D 27 36 E6 E8 00 4D F5 1F
 5F 5F 47 A3 09 11 DA A9 52 50 71 D8 DC 96 8C F8
 BD 09 10 54 D9 5D 1B 01 13 94 08 45 74 A2 16 42
 AB 2B 98 AE B0 04 B1 47 1B 6D A9 13 C7 D3 35 A7
 E0 2D 8D 75 B7 0A DD A9 E5 A8 FD E2 8F 73 29 23
 31 5F F1 B3 A7 5F 81 0F B8 C7 3C A5 32 DA E0 73
 04 A1 F3 24 E7 D2 EF E2 AD A8 A9 26 3B A4 41 70
 76 44 94 9E 75 35 FC 7F F8 86 AE 5B 97 8A 6D C9
 C5 90 BD 36 1C DA B4 49 83 D1 C4 26 A3 D9 65 71
 72 8F B5 C9 BD 93 1D F5 78 2D 2F EE 52 38 BB 9C
 EB F2 43 2D 18 97 B7 0C A6 85 94 0E CD E6 95 21
 27 83 CA 2D 57 B6 C4 C9 2F 47 1D B5 D5 DC 07 AF
 00 EF D7 69 F6 B9 6E A7 1B 9E 56 96 8B 68 0D B0
 46 44 3B 9F BD EB 36 46 1C 5F 59 C5 DC 2C 4A 11
 6D DC 09 85 24 45 AB 8E 0A F6 E5 4D B4 81 04 16
 4D 23 60 07 92 E5 9C F9 8A 8D AA 7A 42 CF 45 CF
 2D BC F9 22 05 66 C3 0F D5 25 17 6B AB 54 26 03
 07 4D 60 67 E0 A7 5A 6B E7 11 B2 F9 E0 29 A8 6B
 E4 75 FD 65 E0 61 71 86 57 7E D6 69 9A 1A 90 5D
 E2 BF DD 8E B9 C1 A5 C1 DF A7 DD 86 23 0A FC 56
 5D BF 13 B1 0E D6 D2 A7 B6 71 43 52 E6 6F B8 7A
 50 C9 10 CA 80 90 2A 87 F3 B1 A6 46 51 89 2D F2
 19 58 8C B6 C4 50 4D 65 C4 70 51 9C F6 98 F8 9F
 6D 58 83 71 A8 0A 8C 6D 30 FD 9B FC 99 B4 67 22
 7C E2 F6 EE D5 49 14 AF 0A 49 61 83 34 AB 9C 58
 BF 04 F6 03 4D 59 2D F2 1B D5 53 1B 85 9B 21 EA
* End 2866772762 2364823874