* LTspice Encrypted File
* 
* This encrypted file has been supplied by a 3rd
* party vendor that does not wish to publicize
* the technology used to implement this library.
* 
* Permission is granted to use this file for
* simulations but not to reverse engineer its
* contents.
* 
* Begin:
 58 90 AB B6 60 A5 44 65 29 FE 4F B6 97 FA F3 61
 30 40 5F 92 6B F0 29 8A 46 51 4E 66 E9 45 5C 50
 1C A2 F8 5A 96 32 49 C6 F9 6D 7B 4E F1 07 00 04
 2B 45 C0 88 CE CB 74 92 4F AB 0F 6F 07 89 5A DB
 E8 DC 72 4D E8 12 2F 7B D4 25 BB 27 50 31 72 F5
 B2 70 55 95 02 26 D8 5C 11 B2 1B BA 20 12 F9 85
 87 B5 B4 22 12 79 FB A2 7F 4E 56 58 8F 4E 96 D5
 9D 93 F4 F9 AD F8 DB 8E DC C7 39 AE C1 99 F9 15
 4D F6 1A B7 DC 94 46 67 E8 9F 83 79 00 23 12 7F
 14 10 56 F0 70 BB 13 49 93 A1 A1 7B E8 AA 87 2E
 96 6C 74 C5 DB 24 5D D8 07 92 02 13 47 DA 16 1F
 83 41 80 EE 23 8F 83 F2 1D FF 28 5F 7F 6F EA 8F
 00 A8 5E A4 1E ED D6 BE 9F 48 D9 26 BC D7 E4 4E
 61 E3 CB 67 39 AE 42 C0 7D 81 40 24 D3 05 E0 CD
 70 4E 26 6C 84 FB 14 FF 7E 96 FD EC AE E9 CC 96
 69 12 3D 94 B1 E5 C3 BE C0 4A 32 44 97 E1 3C 3D
 C5 04 27 DA 5A 80 8F DC 70 2D B8 A0 D2 D6 78 2B
 A2 B9 B4 F6 94 1B 77 BF 01 7A C7 35 17 6D 31 4C
 61 B9 9D 42 65 04 AA E4 C9 3C 61 FB 9A B1 08 51
 12 74 23 72 76 65 28 30 2D 42 1C 68 FB 7C 01 D1
 98 E6 BD 05 76 C9 A7 AE F3 5D AC DF 1A 3E F0 5C
 74 6A 7B DA 09 E4 D0 AE 34 EC 3A AB EA 1E E3 8C
 FB E9 E2 D3 93 77 D1 3D 82 D1 A3 F6 BC 49 38 5F
 89 87 5C 67 AF 28 A6 09 BE 54 EC 12 CD 2B A6 8C
 55 05 10 12 C2 1F DB A9 43 7F C5 AF C6 A8 0E 9F
 16 A5 65 0B 88 8A DB B3 AE 00 97 32 8F 2E A8 37
 4D BB E7 36 38 44 99 76 9C 01 B6 DC B9 3F EE 58
 40 BD AE 75 18 0F 9E 9E 83 86 60 16 13 F0 E4 E0
 24 F5 7C B5 7D 4E F7 34 29 76 FE DB B5 7D 05 90
 F6 60 D6 C2 FF D6 91 DF 7E 63 4E 28 1E 61 42 FA
 4B 60 51 08 0D 04 3A DC B1 80 90 05 E2 0D D6 C7
 6C 32 C0 D1 66 56 F1 A1 90 08 FE 4D 19 46 38 94
 48 7A A1 1F D1 5A EB 7A 8D 32 19 07 DC B7 18 D0
 D2 25 F1 56 16 5B D2 66 5A BF 94 1D 4C 38 2B 82
 17 5F E1 EE B3 B6 B3 EF B7 F9 56 99 19 3D 47 D9
 B8 6F C8 6F 50 BD 59 F7 64 99 84 8D CA 4A F6 00
 CD 61 36 33 B9 5C EA 6D 96 FD 74 52 91 1C 02 08
 23 49 10 35 DE 59 F2 95 F3 1D B8 32 10 6C C0 E2
 2B F9 7A FB 16 9F 4B 12 CC ED E0 BE 3A BB 41 D4
 70 29 E2 59 F1 08 15 D8 C7 A8 5D D5 C6 EE 39 BF
 06 BE D0 BD 49 7D 7B A4 4D 93 72 8E 44 ED 80 65
 29 10 3E 19 01 F0 C0 7F D7 8E 48 1F 89 F3 3C F9
 04 BA 3E 04 2E 82 CD EB 5C 09 6A 98 A1 2E 1A 0D
 28 53 24 1B 12 5A C7 04 94 D0 DB 42 AE A1 41 26
 1B ED B3 6C 20 2B 32 46 2F E8 85 0A EA C0 C1 4B
 2B 79 C9 F1 32 3B 28 A2 72 E3 0B 4E A6 DE FF 50
 31 9F 93 15 D9 4D 63 C0 D4 8B 59 6A FA BD E8 0B
 30 9D 81 B4 20 B4 D1 6A AA FF 47 F7 2C 8C 9B 48
 92 E9 F7 A5 94 30 6A 75 2F 5E AC B3 C4 F8 4A 98
 6A 5A 11 13 70 74 45 DD 80 A6 8F 75 63 21 27 86
 C7 E0 6A 9C F5 A6 95 AE 77 05 0E D6 9C F1 50 11
 AD 73 2F 2C 70 38 2C 02 F7 14 E9 34 D7 2A 0E C4
 46 C0 26 07 31 0D 65 A9 32 15 6D 5C B1 1F 8B B3
 50 4C 4B 79 E8 98 71 4A 43 C2 EB 6D F8 C6 F9 E5
 CD 72 71 51 9D B6 83 BD AB D1 7F 9F EE 5D 97 D9
 CC 1B 44 2F 3C 4A AB 88 F2 BD B2 74 7D 0F 78 C1
 46 F4 8F 3A 2B 5F FC 83 66 4D AD ED D2 A7 A4 7B
 E1 01 B8 C7 69 05 4F 4D 07 3E 95 05 78 5D F0 A3
 53 79 99 11 FA 96 25 73 42 DD 0C 68 A9 53 CA 42
 20 4B 0A 13 C1 BC 97 C9 8C 78 FD A4 11 56 33 13
 1E 60 22 AC 8C 8C 38 65 07 D9 7C 73 C5 C4 50 F0
 3C FB F4 64 E4 A8 93 45 10 89 02 C3 79 73 AC 92
 2B 20 0F 0D 54 27 65 C0 71 B9 F9 09 C3 93 C2 91
 26 BA 06 95 6E 36 37 4D DA 39 AD 3F D5 E9 D3 51
 8F 69 56 6B CD 99 D5 4A 20 45 9C F5 BF EF 86 E3
 2C 7B CB D1 17 E8 34 08 26 C6 E8 91 E0 A9 7C 87
 A5 6F F8 0C F2 B2 8A 50 37 94 25 22 CC 0C 50 B9
 F4 CC DF 45 2F F9 51 8E 01 38 67 A1 56 5C 2D B7
 F4 4A A5 D0 7F 71 5D 9F A3 7C D7 CD 77 0D 23 BA
 AA E2 CE 97 26 66 51 9C 1F 00 EA 71 A7 2D AF BB
 60 40 7E D6 1F 46 C6 81 22 1E DA 63 98 71 19 FF
 1C A6 94 CC CE 65 56 CD 52 A4 37 55 0D 25 3A 9A
 C0 17 CC C5 CD F9 17 45 AB AB E0 E4 8F 42 FC E8
 81 78 71 F1 D3 FC 3F 02 F3 AB AC 73 84 9E 74 60
 26 19 A4 E6 DD DB E5 54 10 27 9C 25 BF CB 6D 29
 02 5E 0A D9 21 3B D8 F9 31 75 F7 7B DC 76 5E 9B
 C3 AE 20 CB BC FE DF 5F B8 6A CA 85 6A 49 18 78
 6B 0C EB 8C 2F B9 1F C2 47 01 AA 0B 9D 51 D2 39
 3D E2 9F 52 F2 13 BE 69 DD 06 7D 01 EE 80 48 14
 0D A7 62 12 AE A5 A8 57 45 04 60 0D 0F EC E1 9D
 7A 0F DC 49 8A 57 33 92 52 D6 80 A5 3E 21 5D E1
 9F DF 00 35 19 C6 91 B2 67 AE 7A 42 E3 9A F7 8D
 1E 82 84 19 A4 19 25 E9 0B 20 05 4E 60 33 7B DA
 3B 4B 64 B8 5B DD 1A 42 94 C6 2C 7B 9C 59 07 A8
 FA 16 CF E4 93 BE 37 45 06 9B D8 7B E1 13 DD 96
 DE C7 89 31 9D 51 0E 00 23 29 11 F5 FB FB F7 0B
 2C A6 93 5F C2 C0 2F CF 04 52 7A CA 3C 82 C0 37
 B0 6D DD D6 27 1A 15 54 63 AA 08 FB 4B 98 89 E9
 38 DC DD F0 DD BC F8 F7 BE A8 39 1F B5 E3 93 D1
 D7 D7 2D 36 64 81 36 14 07 A5 4B 08 F6 49 4A 6F
 B6 CD 47 57 40 2B B6 12 35 8E 6B 73 D1 23 70 32
 3D AC 58 9A B0 ED 41 F8 A6 6C 47 32 6B 85 96 25
 5A F4 EC 1F 8A 1D F1 42 1B E9 15 F4 A5 CA 78 BA
 2B 38 25 13 C5 34 9C 61 D2 41 7E 4A 9C 99 1F 31
 E4 DA 0D 46 CE F8 30 55 C3 7F DA D0 62 4E 3F B3
 4B E4 C0 C5 D2 5A EE 3F E3 D7 27 17 E0 C2 26 5B
 54 B7 AB F5 1F 0B 3F 58 AF 32 B5 03 68 6B C5 3C
 05 65 17 AF 0B 73 60 63 DB 72 D0 6D 41 2A 33 A0
 70 64 64 40 09 62 03 F8 95 D1 41 08 89 12 59 54
 D6 F2 C7 D2 F7 F4 C2 EF 6E 48 E1 17 1C D6 44 D1
 AD 99 89 AE F1 5A 8E 15 3D 3F 2F 4E 47 F9 76 7E
 70 79 B5 1C 47 60 4E 88 89 5A B1 1F CE EA DA 1D
 5E ED 0A DD B5 04 48 C1 A2 AA A6 A4 17 F1 E1 1D
 E2 85 9A 3A 76 D2 A7 BA 09 60 F1 37 38 B4 D8 F4
 4A 4E A0 FE 2F 7A 15 13 3A 70 30 9B 14 F2 49 FB
 A4 D4 46 73 E4 2B 8A 39 9B 6C 09 B4 67 C2 BC 30
 9D 2C 01 D8 30 E6 D0 F4 0D 4D B6 88 40 50 58 8F
 8B 80 F0 D9 C8 B7 72 C1 41 12 64 55 45 F7 0C 0B
 6D 49 7A 0D 97 18 4C 26 1F 15 89 60 87 84 6A 57
 70 D5 EA E2 E1 65 F0 68 D7 A3 16 E8 A0 8C 05 F4
 22 F3 E0 12 E7 54 CB 3D A9 01 C0 5A 7D 22 A1 BD
 69 50 22 05 F9 1F 29 DB E4 3E 6E 8B FA 1C 22 04
 09 93 FD AC 4D 6C 28 B8 57 DD 74 AE 82 F7 D0 81
 86 74 40 9B 36 B1 DE 46 6A B2 41 44 BA 78 91 6E
 91 00 61 13 EB 79 F5 F2 0F AD EA 02 DE 50 1B 4C
 BE F1 66 6B 9E D3 1E 5B 4A CB F4 DB 2B FB F1 1F
 76 8E 62 10 7C 9B 8E 57 51 5E 83 8E E0 A6 8A 6C
 40 2C 62 BD 7C EC B4 E0 23 6D 12 38 EB 68 AB E5
 73 9A BF 43 39 DF 18 59 E7 79 64 4D 03 DE A3 C3
 B2 1C F7 04 F3 63 AF 3B 13 35 80 3E C2 B6 45 DE
 64 E4 1C 52 34 BF 4B 78 CD DA 84 AC 6F FD 75 D6
 F4 38 47 57 D7 CD 25 B6 08 9B 18 43 CB 77 EF 43
 D2 8C E4 3D B6 CD 06 6E 2A CD 05 55 75 A8 27 D9
 87 08 24 5C D7 DC 08 A5 42 78 E7 7E 97 63 7C 2E
 83 95 98 86 CB B2 67 B0 91 0B 03 2C 73 9C 2B CA
 88 1F 50 63 07 B0 9F B6 D1 5E 3A 15 00 39 CC D7
 74 00 27 30 8F D8 D9 09 6A 13 E7 9A 89 7E DD AA
 48 73 E4 D4 60 BE AD 64 E0 43 FD 80 73 B7 A2 53
 B3 59 33 4C 55 5F 86 1F E3 FA 0F C2 CA 12 56 CD
 E7 7B 94 F8 69 C3 53 59 D0 FE 10 F8 08 22 67 1A
 03 32 0C 8D D1 CF 92 45 D5 51 3C 45 63 36 E2 DF
 0C EF 59 8C EA 33 FC 78 9D 3B 49 05 59 C1 68 9B
 32 37 47 CE 60 D6 44 2B B6 AC F3 9B 96 A0 A3 29
 37 AA A0 66 F9 31 3E 62 A6 81 AC 72 D8 0A B3 D8
 DC 70 A1 9A 36 4E E9 CC F7 63 AE 73 FB 74 0A B3
 9D 75 E1 60 8D 19 00 FF B1 17 FF AB 89 3F 60 FF
 F1 95 28 AC CE 80 E4 0C FE EF 47 5F 14 9C 46 B8
 D3 41 07 BA B5 F0 60 C9 B1 28 03 72 8D 8E A6 E5
 92 38 BE 99 16 9A 31 8F 19 D0 35 7F C4 2E 6C BF
 42 CE 1D 16 B2 D4 BC E9 E7 F1 C1 9A 0A A4 2D 61
 F6 66 72 B6 FD C9 1B 1D 18 FE 29 EA 33 03 B4 58
 64 5F 3A 71 82 2A 9B 41 C1 EA D3 C6 4F B3 9C A5
 37 31 BB AE 1C 3C BD D1 4E CD 43 FB F9 51 26 7B
 0B AA AF F3 EC F8 A3 F8 F5 82 9F B7 40 1E 98 7E
 D1 4B CD 99 04 19 70 FF A3 63 16 88 8F E5 72 1B
 DD 98 60 62 E0 70 FF E9 56 DB 59 AC 2A 01 D9 41
 7A AB E9 31 1C E6 74 19 27 D1 0F 30 DB AC 25 23
 1E 27 8C 33 AB 07 00 09 7E D2 26 47 7E 01 AD 7F
 C7 97 5E 42 99 F3 F8 B0 BE 5A 34 85 D4 C3 95 EB
 5E 41 62 01 BB 45 96 15 70 7A 65 80 1C B2 2E 32
 0E C1 29 8D CE F9 84 C0 D2 66 EC 56 CA DF 3A 91
 E0 07 8E 77 F5 D6 22 0A 79 45 CD 55 74 57 3D 6C
 08 52 AE 82 41 A9 68 FC B5 3B 20 9F 01 62 CE A7
 97 4D E6 73 46 0F 5F 33 44 C7 DE 61 22 E1 BB 1F
 BD F0 DB 91 88 16 FD 92 E0 C6 12 BC C5 03 D9 7F
 47 F6 58 65 57 74 50 E4 E0 36 67 7B 19 21 C0 65
 49 DB 34 E6 8A 67 84 65 C6 D0 DA C8 AE 19 70 F8
 67 FD 2B 32 5F 9B 59 E2 E3 A2 B5 73 1B F8 91 4E
 89 71 3F EF 96 DE BE A4 FB BC 63 15 76 5D 9E 4C
 A2 98 16 1D E4 FD 30 6A 57 51 79 A7 4B 02 83 E7
 D3 74 2E 1D 19 4C 7F FC 2D CF E1 3F B7 E7 F2 5D
 62 CE 0B D7 81 E1 F0 21 DB 48 FE 12 11 77 14 36
 B8 20 76 C0 8E 78 C3 9A 8F 5E E7 55 20 37 31 86
 02 B8 EE A2 E5 7D 08 41 A2 97 54 48 F7 99 E0 5A
 BF AF 7A 27 41 75 8C 9F E5 B5 CC 48 9D 61 F5 CE
 A0 97 E6 E7 23 DF 88 B7 23 0B F4 72 AA BE B9 A7
 36 03 59 01 40 0D 36 BD 19 CB FB 93 CC 25 8F AD
 5E 3F 5D 20 C8 7D 31 F3 CA 27 DB 14 58 12 CC 61
 BA 82 D0 B9 AE DF 74 71 F6 78 99 90 EE E0 7F A3
 FD D6 36 5E C1 D9 A5 36 C4 FE 74 60 2B AD 6A 18
 BB 60 47 0F 4C 5A 2D 2B 52 B2 FE E1 FE A4 8E 5A
 E9 C5 4E 94 5C E6 D7 40 08 53 85 36 48 B9 38 BF
 88 7E 99 B8 A5 FB 7E BC F6 55 0F 4E D8 81 E1 35
 5B 89 FB 59 2E F7 7A 1D B2 90 36 74 D4 E0 D8 B1
 4C 9C BA 90 50 30 CE C4 05 F6 92 A9 C2 97 BF C6
 04 61 29 B0 44 3D EF C7 66 BD AA B7 B7 63 08 41
 99 A6 14 A5 15 37 2D AD 0C B7 C7 EE 7A 89 BD 36
 BA A6 10 CE 01 5F 01 69 4F ED DA F1 05 31 66 8D
* End 2448429884 3939977020