* LTspice Encrypted File
* 
* This encrypted file has been supplied by a 3rd
* party vendor that does not wish to publicize
* the technology used to implement this library.
* 
* Permission is granted to use this file for
* simulations but not to reverse engineer its
* contents.
* 
* Begin:
 1D 4B 3E 89 E6 7D E7 9E C7 35 6F F9 7F E5 8C 9A
 40 BD D0 A7 DE 9F 5D 56 E9 EA F6 DA 68 78 91 37
 B8 EE 12 78 9E 87 DE 4B 21 42 5C 7D 0F A0 B1 2C
 C2 EA 84 89 60 42 37 A1 4A 95 04 7A 13 48 F1 8B
 22 54 39 07 13 38 87 76 20 C2 E9 38 08 A1 79 F0
 1C 35 4C 00 C5 C3 A2 1F 17 93 A4 60 F7 6A 25 D5
 3E 13 95 1E A7 EB 15 89 0A 6B AD 34 F8 04 5B 3B
 A8 08 01 37 4C C3 F0 DC DC 13 EF D7 D4 2B 78 A9
 C1 27 1E 42 6E DA 7D D1 ED E6 81 4F AD E4 FC 59
 EA 7B 64 BC 54 6E 67 7E E1 A5 E3 29 5A 29 23 8F
 8C B9 75 85 FF A8 01 A7 4D 55 8D F2 87 85 C7 FA
 41 59 11 F1 AE D4 FF 90 5A 72 5B FB 72 B8 A0 6A
 5D A5 1D 2B 92 22 6A 72 5D AC BC A1 D2 9B 7F B0
 5D 67 2E 0D 6E 9F EB E3 29 99 CA 9A 2D 1D CF A5
 27 94 71 19 5D BA 3A 45 AB B8 63 25 AF FA 26 3B
 76 DD 48 F1 20 7B C3 60 6F 2F 2E F0 A9 FD BB F1
 5E 74 2B 89 25 72 B1 74 E3 10 63 D8 CD 77 BC 6F
 4E DF 5F 65 DE 31 D5 B4 84 AE 44 3E 9C 22 A7 C2
 B5 24 E4 93 92 0F 59 7C 05 C8 20 F1 3C 25 E3 54
 2C 1B 23 97 96 8D C7 1E BC 02 EC 98 8B F9 C4 59
 CF 82 4A 2B 87 A0 A7 05 49 E6 7C 27 86 3E 7F AF
 DD 40 3C B2 1A C8 6D 7B F8 A7 8B 0D C1 A9 EF 3A
 61 E4 52 14 CC 1A 8F F9 6F A8 EA 10 6A 0F 31 F7
 8A 1A 14 DE 48 A1 C1 46 B9 6D FA 7A 29 65 80 A3
 EC 63 A3 F6 A6 37 2B 13 BE D8 EC 7B 06 83 5A D2
 B5 9C 0B 8D 11 A2 04 C7 EE 34 02 F8 70 FE 90 16
 6A 19 F7 52 07 DB 23 6F 87 F1 7D 84 0B EC 7C 73
 B5 F9 10 58 23 60 F0 2B 6E FD D7 3C C3 44 46 C6
 39 10 A9 EF 62 73 C7 4F DF 4D 4E 53 E7 09 0B 8F
 1A 43 ED 9B D5 C1 6D 10 3E 2C DF 93 4A 17 F2 2C
 7E 5F 38 7C FD 38 84 22 5B 2A 87 70 36 C4 60 E8
 7C 72 E7 1A 07 C5 F2 85 04 1D 5B 06 33 CC 83 66
 58 27 47 88 48 47 95 A5 E4 9D 79 47 F6 D1 0E A9
 21 50 48 89 03 81 08 5E 3E 18 73 F5 96 5E 18 4D
 C5 10 54 D9 13 6C D3 10 EF F2 B9 D5 8F A4 F7 A5
 FA 59 E8 09 53 C4 23 8F 15 EF AE 2D AA 72 9C 95
 05 B1 28 0C 70 56 3C 03 BC 34 7F B5 C2 CF DF 73
 8F 52 E0 E6 21 AD 47 1E 56 8F 2D 2A 59 BA DD D7
 F6 65 D0 47 AC 95 BF 62 A8 FF 7D 7E D4 F7 3D 9F
 B9 C3 1F 06 8F C4 48 C4 C2 97 3A A4 2F 47 4D 29
 6B 73 B5 D4 ED A7 90 D7 0C 5F AD 7D 8E 0B EC C5
 B8 3B 4B 6A F4 60 EB FD 73 DB 30 D8 30 5C 7B 6C
 F2 3B 21 CB 52 12 2D 6B 8C DC 47 EC F5 C9 5F 36
 C9 B3 41 DA 76 5C 7E 64 D9 EA 0E E8 09 6A FD 28
 19 75 DB 9C 8E 5C 7C F5 15 BD 8B 96 BD 13 A4 8F
 CE 25 97 F8 1C B5 0C 46 14 4B C8 EE EC AF C1 F8
 6C AE 92 5E 99 3F A9 40 3C E8 DE 86 98 2C 63 15
 40 20 90 38 4E 3F 58 31 5A A8 6E E9 04 D7 B6 15
 9A 6C AC E6 82 F4 B1 5F 09 D5 EA BD C3 F7 69 84
 AE 29 FD 03 0D 99 57 57 66 EF 85 DC 61 58 4A D0
 76 6C 80 26 D6 49 E6 64 94 4D 96 7D F6 E7 57 A5
 0B EF 5E 6A 42 87 9B 8D D2 B9 95 27 2D C3 7B C0
 C9 A2 17 C0 A9 2F F2 DB 97 CF 8E D1 AC B1 94 8A
 49 63 2A AD FA AA 08 DC 30 0F 71 B2 84 64 4D B1
 4D 8D 3E 9D B1 53 8F 7A 87 8F C4 D5 8E 57 1A 04
 01 11 96 6F 9E 8D 0A 81 B1 19 3A 20 0E EE 98 CB
 7F 01 A1 4B 7F 38 9E D4 C8 87 71 46 01 1C 1B E9
 C1 F8 12 D9 A9 D6 E5 D1 10 5E F6 04 1D CD 24 0D
 39 1E 32 A7 55 2F 64 2A 47 21 CE D0 06 83 AD B9
 8F BE 2D AF 7B E9 6A B1 8B 37 B2 A3 7B 01 40 FE
 08 06 22 1A AE 23 AE 07 DB 9F 01 AD 3A D3 83 C6
 FA 2A 89 5B 1C 31 6A 41 47 C1 73 87 7C E1 1E DC
 13 88 82 FB 78 8A 86 07 17 22 35 90 5A 64 F3 BA
 37 7B 09 D7 7F 55 F1 C8 36 11 8F 25 FE 4C 97 18
 9D 04 89 BF FA 57 47 CF 04 7E 35 9F 6D D4 0D 53
 3C 59 6A C0 43 48 E1 87 21 79 B4 54 9B 34 6D 77
 B4 F2 D1 01 5D 3A 1A E8 DF EA 0D BF 01 39 87 72
 76 59 75 EA 84 F1 3F D6 37 AB 8F B6 96 EF 93 98
 B1 75 21 74 46 AF 7C CC 3B CC 9B 20 B0 08 CF 96
 62 0D 4A ED 2C D4 D9 D8 96 0D 62 1F 94 F6 C3 0C
 59 6D D5 05 FB 4E 5B 96 35 24 AB 2C DC B2 25 46
 2F 8F F0 33 68 F1 AC 14 B5 78 C7 5A FC 34 F4 52
 F5 15 D2 DE 29 86 66 27 10 C7 7F 8A 26 AC 49 A1
 BA B0 88 35 C8 E7 7B 68 54 8A 6B 1D 90 47 88 DA
 41 92 6A 98 F0 08 DE 8E 33 82 FE 24 BF 05 07 CF
 94 82 2B 9A B0 B3 2E 0E 35 43 8F 72 0F 89 F4 9B
 6C AA C5 7E 8A A0 57 A8 B7 F4 2C EE FB 78 E2 1B
 5E E6 7D B2 03 9C 61 84 D9 01 CD 93 8C D6 00 22
 F7 CD B7 05 A4 DC 83 86 68 78 45 BF F3 10 19 A2
 8A A7 C4 5D FA 25 7E 95 9B 57 4E 8F 6A 60 57 83
 09 B2 4E 08 CB 2E C1 BF 13 F4 1C 20 05 7C 6E C4
 B9 97 4F 34 47 0B FA 14 41 B6 FE 77 C5 B4 BD FA
 38 C7 C0 71 EB 79 9D F0 3F 3D 87 72 03 5A 24 C6
 D9 D4 A7 7E 46 60 A1 49 6F 07 BF 84 BD A7 AE DD
 69 28 8D A1 82 EA F0 DF E7 0D 60 DC 4A 9F E6 9C
 41 93 B5 D6 1F B5 9D 92 3E C6 89 B1 C9 D4 08 CB
 5C 0F 76 45 B4 C1 E6 B7 64 E2 62 C5 6B 5B 40 E8
 27 BD 56 6A 47 B9 4F 37 48 60 53 24 A4 80 51 59
 5C BA 8E 03 04 84 23 51 AD 00 26 13 26 2C EF B8
 CB 52 B3 DD 13 C8 47 0C DD 94 68 3E B8 30 49 2E
 C7 20 3C 8D CA 15 D0 05 94 6C 6D 34 56 83 62 4C
 99 63 0E F0 F3 3B 29 F4 55 1B F9 31 D8 67 9E E0
 25 D7 48 9C 05 E1 A5 02 7A F3 FF 3E BB 5D B0 BE
 F2 87 F3 A9 E6 71 2C 28 E2 8B 3C 38 76 96 95 68
 33 3C 1A F8 53 F5 30 E6 60 F8 1C 17 B7 ED 55 46
 92 7D 4E 8F C2 BE 03 B8 62 12 48 F2 16 AE C3 2D
 04 DE 06 D2 5F 47 E2 00 C0 8D 20 0B 5A EF 6A 68
 3B 7F 26 D7 2F 5C 62 B9 1E 84 98 BC F4 0B 25 41
 94 9F 5B 87 34 E5 05 6E C3 E9 70 58 9B 34 D3 57
 33 0F 45 D2 CA F7 CE 7A 8D 88 33 33 E3 23 61 BB
 2D EE A4 37 4B 05 51 1B 8A 50 1B 06 7F BC 1A 85
 8D 23 0E 95 0F 7E B9 CB 94 1E FA 11 91 7B A3 7F
 4B A3 44 E2 3F B5 44 B3 C3 3C E4 B1 C2 65 4E 87
 FE 25 17 33 0E 78 1C 03 9B 56 0F 2D D5 17 CA 83
 90 3B 31 3C 24 0F 1C 30 3C 8D 07 87 BB 35 8E B2
 68 41 F7 D7 5F 54 14 6E 1F 65 DF 90 44 9B CF AF
 4C 7F AD D1 91 CB 05 F4 8D 41 63 07 16 9D A9 CF
 B2 CF 09 3F 4A B3 06 F0 94 4B F4 2B 86 E0 67 B2
 CA 23 73 E6 BD 9F 16 AB FE A4 A6 F0 44 6B E4 AC
 8A 1B 12 B3 C1 9A 33 E4 5F 86 6B 1B 99 A3 58 32
 98 7C 37 DA 08 9D 19 56 B3 35 79 A5 07 78 B9 BD
 BE 54 14 ED ED D1 F4 10 66 30 11 DB 31 77 73 CB
 8C 65 73 62 1B EA BD 74 80 A5 4D 56 54 A4 96 15
 32 2C 82 8B 13 4C 1B 1D 46 7B 31 FC DB 20 BA ED
 10 28 95 B4 35 2A 03 C9 A2 72 F6 06 D1 0E 08 29
 EF 10 AB 69 74 3F 52 7A D7 F4 2D 10 CE 39 0E DF
 57 BF BF F6 14 72 A4 33 88 01 53 64 FD CA 1A 19
 87 D3 E1 1B A8 3C 14 9D 3D D2 3B D6 8D 53 99 0A
 55 23 81 89 06 AF 45 CF D5 D3 84 95 90 4F C0 ED
 AC B4 2B 39 A9 78 41 C1 8F 37 C3 D3 80 74 74 50
 63 DA 97 C8 FE 78 91 2A 62 0B A7 E4 D9 7E 41 22
 BA B9 89 EA 62 10 6A CB 73 A8 97 81 5E 04 C6 0D
 25 B8 B2 B2 A4 4B 25 84 28 7F DF 41 4C BF 92 9A
 A4 95 17 B9 7C 79 7F D7 EE 66 26 50 CF E5 07 D3
 53 58 3B 6C 24 31 06 FC 32 A2 81 9C FF F8 DB FA
 C1 41 BC 8A AF 0C A1 81 BD 25 F1 F2 00 9C AD CF
 F6 71 AA 77 74 5A E9 9D A2 BC FF 84 20 A9 ED E2
 A0 53 BD 76 79 FD 9C 98 A5 31 88 E5 9C 6C D5 27
 9E 37 BE 77 CD 66 61 C0 5E C8 4B 96 FC B9 65 8B
 69 36 D3 37 BA 99 4C 2A 5C 1A DD 3A 5C 65 1E 7F
 FB B9 E1 24 04 03 3C A8 A0 00 09 F3 73 BB 94 BD
 8E AE 1C D5 48 9B 48 5B 99 B2 7A CB 55 B4 A3 72
 0F 5C A3 FD C5 3F D7 5A D6 E1 90 17 7D 0D A9 32
 C0 1B FF 7F 4C F3 4A AE 9A DD EB B2 B2 12 BF EA
 3C 1A DC D2 E8 32 2F BD 4E F3 77 6B 03 14 FC 70
 4D F7 04 AB 8F 25 3E 63 E4 D2 17 26 93 2B 36 AD
 0E 4B EA 62 7D C6 C6 18 FA 35 98 2A 50 70 BE EC
 DB D1 12 38 72 6A 99 D2 EB 95 E8 9B E1 90 ED AE
 B6 49 B0 07 50 06 C5 58 64 A3 B3 D4 50 25 63 D2
 30 8F C4 1C CE E2 57 14 9E 5A 5A B6 95 0F C2 B1
 2F 83 D5 8C F7 E2 00 48 33 6C 65 23 11 60 01 56
 03 ED 0B 83 81 76 F5 3F 48 35 26 1A 8D E6 63 6B
 18 F7 48 88 34 58 9A 3F D0 BF AE 2C 18 5F 8B F0
 DC 35 08 86 2E 6D BA 53 0F FD 1C D4 FC 0B 10 BC
 EF 92 3F 6C 91 D2 B3 81 13 68 EE 46 66 32 D2 87
 A2 38 9F 19 53 A9 F9 E9 A5 E7 E4 9B 6F 8C 9F EE
 0B CF 1E 23 94 C0 B5 4E E0 EF 8C 5B 49 DA 05 27
 B2 F0 D7 DA B2 3A E7 1F 43 F6 D0 3D BD 14 D2 DB
 D8 D2 5C E3 53 F7 65 EC D1 FE BF C9 DD A8 03 3A
 E4 60 75 AE 78 BD 8E 4E 33 0F 1B 13 31 84 EF D8
 9E 8E EB F6 32 65 66 84 77 CD BA 90 32 30 6F E6
 E3 4C AD 3B 0F 22 A5 3D 0B DD 29 20 D3 F5 38 30
 47 10 27 B2 41 B0 E4 0B 95 B5 EB C5 EA AE E0 96
 D8 F9 7C EF 4D 59 89 FD B5 6B CF 4F 6C A4 93 7A
 9C 55 E7 11 00 B0 C0 81 19 63 88 97 D8 36 EA C8
 60 4C 36 6A 42 B6 5B DE 1B 68 29 08 84 FB 0D 48
 34 FD CC AE 89 C7 0E 33 8E FE C6 CC D6 D3 F6 47
 E8 D6 68 D5 36 29 64 F6 D8 8A DF 38 F4 E7 32 68
 3D A1 66 BE F6 90 B6 66 EC 2D 2A 5D 7C E2 C4 05
 6E 3C BA 99 AC 3E 7D 5F 01 2E CC 53 B0 FD D0 A7
 11 0A FD A9 0B 8E 16 63 E5 AB A3 8D 9A 08 E6 AA
 5B C9 AB CE 8C 01 7E 05 01 4E 1A A6 25 EE 9D 65
 C2 40 2B 53 1A 47 89 A8 19 F3 86 99 50 55 D1 29
 4D A1 B9 42 E3 81 2E 05 48 5C EF 1C 26 D0 97 E9
 3C 7B 58 51 E0 99 B3 07 23 F1 BB 12 E3 F9 A8 38
 F8 CF 36 27 0B 9E 23 13 3B 1F 84 51 C2 B4 46 3C
 C0 3C 4B 23 26 84 9F B4 EE D4 4A BB 67 A5 E8 DC
 AE 75 35 40 C0 BD C7 1F 43 B4 06 29 53 C4 3A DD
 B3 D8 51 48 2E 0E 41 35 49 50 C4 63 C5 E8 FE 9B
 D3 E3 3B 80 FD 8A 88 F9 6F 3D 2F 3B CC 0B CE 8E
 23 ED FC 21 B1 58 F3 1B 19 B7 71 F7 41 CF CF FD
 C8 94 BA 25 CD 07 23 29 61 18 FB A8 8F 57 0A 33
 77 96 07 D6 94 DB 80 D9
* End 2321675038 2320188785