* LTspice Encrypted File
* 
* This encrypted file has been supplied by a 3rd
* party vendor that does not wish to publicize
* the technology used to implement this library.
* 
* Permission is granted to use this file for
* simulations but not to reverse engineer its
* contents.
* 
* Begin:
 31 AE 38 F5 24 A7 AC BB 8E F7 6F 17 51 73 31 E1
 C2 17 D4 3C 16 01 64 41 28 DE 87 0B F7 7D E1 82
 6B 1B 70 97 B9 69 3E B3 81 8A 68 BA 8D 85 67 A6
 1C 87 39 3C E3 55 BD F6 E3 F8 D6 57 1C 86 A3 BC
 BB 18 76 1D 95 FF DA A5 AF 35 68 2C 4A 37 25 96
 10 E2 6B 4D 09 F6 D5 D0 FB B0 87 B3 F8 48 D2 6D
 CB 6B 76 EC E0 BD DA 45 16 4A 4C 3D F3 89 53 70
 38 19 42 52 4C 22 45 BC 6D CD C0 72 9E E8 C8 9E
 F1 C1 81 F7 DD 88 14 A8 85 00 EA 25 44 B6 7B 36
 AD 6E 42 38 5D FB 41 4A 02 08 40 43 40 54 D9 01
 49 BF 0B 65 27 7B 04 9D BB 36 BC 1C C5 98 B5 77
 51 A2 89 4E 45 06 C1 C6 19 F7 D7 60 42 D0 3C A5
 36 FF 32 BA E9 40 D9 DB 21 73 4B AF 11 39 EF 34
 3E EB FA EC 50 5D A1 4D E9 B8 A7 C3 C6 30 86 F5
 04 1D 36 F0 8A FE 01 D2 47 3D FC D0 E4 40 38 E2
 6D A7 CD 26 E1 15 0F DF 8E 68 A0 CA A5 00 27 90
 AC DA 9E E5 F1 D4 BF C3 E2 01 82 9E E6 A0 A3 FA
 3F CC E5 B1 57 A7 1A 7A 51 BF 0E E6 DB 74 1C 3B
 1A 16 C8 37 F3 81 B1 3C 70 5C F7 40 89 6E CA 3B
 19 9B 4A BD 99 02 A6 9A F7 F9 1C E9 79 75 E1 0B
 1A 74 BA 86 B1 05 92 AF 9C FC 3E 8D EB A8 21 79
 34 EE 08 B1 B7 9C 8D 80 5C 4E DC 29 8C 22 8C 5A
 33 E3 7B E6 A6 8F CA FF 27 92 09 48 7C E2 18 FC
 2C 4F B1 AF 57 1C 95 27 6E 19 7D 0F C9 16 50 26
 7E 41 50 2F 4A FF E8 30 56 99 08 3E E2 CB 65 6D
 72 E7 20 38 56 F0 D8 F2 96 CC 8F EA 70 4F D1 50
 23 BA 39 D0 8E D7 C5 B1 37 B6 41 A0 90 AD 58 D2
 55 7B E5 C2 93 4B AE C7 0E 76 65 59 85 B4 A4 55
 08 23 98 6E B9 59 8F C8 7C F7 AF 22 9B CC 09 89
 03 20 65 29 86 81 51 26 69 75 FE 31 75 81 AA 17
 04 F5 72 5B 62 8A 96 1D A1 31 A2 2C 51 C4 6D 6E
 86 0A D8 23 27 AF 78 07 D2 2A F4 08 B3 F5 06 99
 42 93 03 8A 10 F7 EA A3 48 0A D1 F5 C0 5D E3 48
 E7 29 0B 78 B4 11 02 79 92 84 4F 6B D5 C0 21 24
 91 8A E6 3A C2 72 1E A3 66 F2 E8 02 2A 7B FB C0
 1D 44 D4 70 1D 54 36 AB 09 55 7B 30 3F 23 A0 01
 5A 18 BE 50 78 BD 2C 7A AE 44 3E 50 DB 0D 44 32
 46 3C 91 3A 6C 7D 45 DF FC F3 CA DD 63 AE B3 57
 6A 57 85 C0 AF 09 41 CE 09 F8 F5 16 3D 29 65 46
 F3 11 62 DA 70 AD DA 06 68 6B 02 ED 51 99 49 E4
 85 D8 30 9E AD 22 C4 FA 39 0A 8E 96 F9 54 43 04
 CA 77 5F AC E0 7A E9 20 57 73 E9 D5 4F B1 36 C7
 52 53 C4 0E A2 0B 43 6A 1C 1E 61 D2 97 E1 11 E9
 61 C1 6C 03 70 B1 DF BC 12 F4 52 79 9E 07 29 15
 9D B0 DE F4 97 69 3E 9F 7D 6B 0F 88 D1 23 A6 B7
 7B 6D 46 5B 47 59 02 C2 E1 43 E6 F1 A9 38 92 5B
 A3 46 84 1C 2D BC 0E F3 5B 3C 08 D9 8E 65 53 0A
 C4 FA DD 80 94 49 93 D4 B1 78 B7 6E 76 A2 26 45
 12 F7 5A 91 1C 84 85 7E 1A 04 D6 10 4A 22 28 71
 9E 6C 92 4D 98 F7 C0 D5 86 5B 75 BF A8 F6 12 1E
 BC 30 FE C7 77 44 B3 E9 29 1E 38 85 99 4F EF CC
 E2 0D 07 72 01 38 7A 7D DB AD B7 D2 8C EA A3 31
 50 32 CF 1D 09 6D 53 C1 F1 C1 97 7A 3E ED 98 DA
 5C 19 00 FE 4F 6E 87 90 2A 3C 90 49 60 32 FD FF
 C1 B4 0E 0F 40 F7 E2 20 AF 3B F9 33 3A EF 67 73
 C8 88 38 10 80 F6 52 A5 24 62 BA D9 77 24 07 24
 4D 3B 23 2D C2 F6 F9 AD 3F 9E 21 98 50 3D 23 F3
 C6 43 3A 63 C0 78 03 53 94 2D 08 53 66 A8 12 8F
 DB F4 23 7C A1 B9 F2 35 D1 7E 35 95 AC 25 57 6A
 B1 D9 29 E0 F0 77 53 B7 77 5E E4 FA EC 40 62 C8
 44 89 71 6D 46 27 E7 FA D6 9F D1 EA 1F D2 09 EA
 10 5C 2F A4 11 A0 2D 3D C7 00 4F 35 74 51 55 55
 9D C3 0D 3D 4B 62 88 EE 81 48 38 54 28 CE D2 8C
 88 0F BD C2 1E 67 51 36 CE 82 A3 BD 3B 72 EB B8
 FC 10 4B 03 2C 99 61 3D 96 CD 05 C7 90 72 5E 99
 C1 C7 94 E2 40 DA 7B 3C 89 8C 2C ED 0B DD CD 4E
 95 9D C7 08 5F 20 6A DB 31 AB 0F 26 2F 55 28 10
 E8 11 70 00 87 C2 7C EA 31 FE 89 70 03 92 6E AB
 95 60 A2 FC A3 EC 73 66 D7 E2 E1 40 88 B0 98 14
 5E DE DF FA C0 AA 1E 4E 85 40 7A 4F 98 05 9F 0C
 11 84 49 A8 FF 88 88 69 FC 0D 29 AE 85 E5 3B 2E
 8E B3 AB 06 D9 5D C0 30 AA C5 6A B5 1A 81 5D 4A
 D7 C6 30 2C 94 5B 72 B4 7B D3 FD 35 BD 0D F7 63
 E9 95 D0 4B 89 14 91 45 B7 B3 6E 92 CE 6F 1A 35
 64 93 95 0A F3 EC AF AE 0A 81 5A 6E 6E 3F BA C2
 50 8F 07 4D 26 15 EF CB E3 C6 06 EF FE CC 7E 65
 99 81 BC BD 1B 6F 28 AA BF 46 98 A8 F2 5F 17 68
 E2 03 FF C4 BD E7 9D 7B DC 4B 5D 3F 81 92 CE D6
 78 49 A9 DE 26 58 D5 9A 45 7B DD C7 AF 04 86 B5
 0E B4 C2 9D BE 87 A5 18 2E D9 53 8C E6 E2 AE 6D
 19 4E 57 E5 93 F8 51 90 7A F1 87 DB 30 E5 27 A2
 CF CC 55 2D F8 89 1C E6 6B 1E 61 53 39 47 1E 1F
 B1 2A CC 03 53 E3 77 C5 CA 61 2E 22 59 10 BD 16
 FC AD 2D A2 46 C3 7F 49 0F 8C 42 B9 CB B2 7C 30
 13 2E 94 9E EB E9 85 23 2D 8A 5E 3B D5 F1 CE DC
 74 54 B6 28 15 56 13 A4 85 CB 85 FD D8 6A 24 FF
 9C F3 FC 2A 55 79 DB 82 FC C6 1C D5 7A 73 1C AA
 FB 59 DD 5B 12 43 7D CB 6D 0F 04 1A 6A 46 24 F1
 36 F5 D5 83 B7 5E B1 3B 4D 26 75 32 F5 71 BA AE
 BA 62 F0 09 D1 3D 09 F2 B6 C4 27 4E D1 28 D2 AB
 48 38 F9 F2 63 7D 88 0F F4 1C CE C2 A8 9F 11 46
 2D AC 04 DF E5 B7 78 00 96 B3 1E 3E E1 1F 43 67
 A2 3B 1C 0C 02 93 99 1A 3F 1A 03 08 7A 19 ED 91
 12 27 30 6C A7 F1 23 D4 6A 22 E1 E4 A4 A1 61 7C
 AC 78 F1 AD D5 44 35 AF D7 07 45 26 4D 33 45 51
 B4 20 F5 8C E8 A6 36 D9 5D ED DD 71 38 C5 AF 1F
 AC 71 A5 75 02 E6 01 1B FB 13 99 D6 A2 3B 94 40
 8E D1 B2 1B 07 AE CE 43 3C E4 A5 0D AB 9B AB 52
 30 85 50 74 A6 FA DB B7 0E 0E F7 5C F5 B2 EE 2E
 E7 D0 6F B0 7A 28 1E 2C 13 B1 C0 BB 95 64 8A FD
 06 4B B6 4E A5 B5 59 62 8B 09 08 CB 7A 71 F3 80
 44 7C 25 84 63 DC 22 CF E8 BA D5 79 3A 39 6B 4F
 F1 B0 7A AC 4B F2 CA E2 97 89 FB 6A 3F 23 87 B8
 E6 60 D7 ED 9F 82 82 63 4F EE 1A 1E D1 65 FE FE
 6A E0 07 9C D0 F2 4A 85 F2 38 EE 3F 2B 27 73 D5
 D3 C8 D5 88 5D AD 1D 40 A6 8D A1 B6 48 4E 3C ED
 8D 26 58 C6 78 BB 05 A2 63 94 FF C8 38 C3 3F BC
 E7 46 84 47 21 37 00 0E 38 DD 9D 6E 52 33 C6 C4
 08 11 C1 91 1E EC EE 0B AE 51 35 90 35 1E 0F 3A
 07 D2 5A A7 60 2B C3 49 41 5C 8E FE D2 70 DC 22
 A0 BF E8 21 B9 0F 9E EE 42 56 DA 7E 8B A7 6D 54
 2A 5E 46 C2 F6 F9 6B D8 CF 25 AB BC 5A 09 04 F3
 FD DD C2 82 20 18 35 EB 30 E1 8D AE 9C 72 B6 A2
 A5 16 C9 AC 11 9D 39 9E B1 E2 2B 33 C4 63 99 5E
 BE 33 63 C7 69 17 AE 1D 39 EE 56 CA 3C 88 40 D1
 4A 45 8D 8A B6 1C 8E 5F 61 EA 2A E8 A7 48 BF EB
 86 CF 8A 93 6E 3A 69 87 05 77 AB 17 28 80 24 81
 96 C3 5B 7F 3F 48 FB 3B DB 6D 8D F2 F8 DC 66 A8
 A6 7F 36 E8 31 65 54 45 B5 18 B0 AE 44 74 06 F1
 1D 2B 04 B9 FD C6 AF AF 38 91 59 62 AF 41 07 EA
 53 82 57 B5 ED B9 32 A2 8A FF B6 0B 3D 72 FC B4
 C3 C8 8D 6C 4A F6 EB 95 D0 FC 66 EA D7 15 CC B0
 24 88 9D AE 7F AD 45 7F 84 4C 86 74 98 F4 4C 21
 8C EC E5 BD EC 3C B0 F6 71 9E 26 56 90 43 22 27
 8F 26 D9 A8 71 9F 27 D4 17 3A 76 45 61 EA A4 7E
 59 BB 39 A7 19 4A 3B 5A 3F BB DA E6 02 0F 63 46
 69 17 2D AE C8 80 71 CE D9 70 EC 5C 40 56 81 68
 18 13 2E E3 85 42 17 1E F6 E5 32 F5 DF C8 A3 FC
 74 9C 69 D7 49 86 6A FE A5 66 CF F6 26 C7 A0 44
 29 E4 D2 86 19 0D 09 BC DF 94 24 55 FD EE 96 AD
 CC 43 8E 24 1C 0E 7E C1 2F 14 48 94 F3 B3 8B AB
 1B 91 6F FA 5E CA F4 86 60 C5 CF FD F7 DB C6 4A
 16 F3 3E C1 C7 3D EF 52 CF 52 4F C4 5C 94 E0 7A
 C0 57 1D B5 B6 64 2A AD A4 A1 AB 64 8C 61 0A 5D
 68 A7 83 A3 B0 81 7C B2 F0 C4 00 2C 6D 61 B9 A3
 8E 59 F3 B7 21 71 AC 94 46 3F 87 4F 40 76 95 A1
 5E C5 85 AF FE 7B 8F 5B 34 71 FB 1B DF 1F CB 79
 A9 0C AF C2 A6 5F 9E 34 09 C1 57 F0 2B CC 16 37
 4A 52 AA 7F C9 EA 5B A0 3E 2E 4E B5 49 D2 21 A8
 30 ED 44 8D 19 00 D7 AF EB FC 16 C8 FE EB 50 20
 99 71 21 57 4A 5C 20 AD 0C B8 1E 6B AD A5 90 79
 AF 8A 62 7C 58 DC 76 4A BC E9 5C 18 10 F2 D0 1C
 AD B7 00 72 E8 4C DC CB 00 DA A6 EC AB 00 30 49
 95 EB 23 D0 F3 20 97 44 EB 02 FA C3 51 4B DA 14
 D5 C7 11 A7 D6 1B 6C 40 2A 2B 7F BF 87 28 B3 14
 A8 C9 82 27 36 E2 90 FC DF E6 35 1E 71 1E 06 E4
 1C E8 C4 CF E6 D4 97 7A D4 1C A1 99 19 17 23 F0
 BB 88 69 1A 53 45 11 FA 8A C0 1A 8D 36 5A BD B1
 F6 EB EC 40 C8 D2 8F 7D B6 00 B2 93 4F 66 14 66
 F3 F9 8A 58 F7 A7 15 E8 AE CD 7D AB 6A 80 E3 1B
 AB F6 2A 3F C1 0C B3 27 47 95 21 64 AC EA 0F 26
 01 AC 80 7D 69 70 AC 59 2F 09 FB 9A 86 59 B0 D1
 3C 73 77 15 4A B4 76 93 E0 18 1B 00 96 40 31 AD
 36 B1 5D 85 77 A8 F4 9B 9F 15 87 F9 7E FB 21 EF
 D7 69 BF 5D 2B 4C EA 68 6C E2 E2 7B 15 78 31 47
 20 6D B5 31 D3 09 12 2F 1D 23 80 CB 5B 63 1D 9A
 11 DD E1 D0 70 0C 32 BE 9C 09 66 5D 87 64 5C 56
 F0 F2 12 00 54 71 C1 B1 9C 52 9F 3E AA 14 AC B1
 43 3B 7E 8E 6F FD D5 8A 38 BD 1B 07 5A F9 91 35
 B1 1B 18 40 2C CE F7 55 FC 31 81 DE 41 26 74 56
 BB ED 75 7F 06 9A 65 E9 83 A3 39 05 86 62 01 08
 0A 2B 34 09 F6 5F CD 51 CA CD 6F 27 8C 80 85 2B
 1C 02 45 0B F9 17 84 4D 75 68 26 34 35 34 95 50
 63 4F 68 06 A1 B7 7C 3D 1E 27 90 9E D4 15 43 BB
 0E 0E 7F 72 DF 8C CA 96 A5 29 2C 74 89 A0 99 C6
 34 8B 36 05 3D D1 91 0C 3C 47 DF 4F EE FA 81 ED
 55 FB 5F 49 9C 3E B4 6A 9C 6C 7C 7B CA FD 2F 7F
 D4 2E E5 44 6C 53 1F CE 7B B6 EC 05 33 B8 15 F7
 86 23 67 2D 2E 9E D7 7C BF 97 C2 97 08 8B C2 0F
 2E FD 04 F7 1E BD DF A9 16 F8 23 40 90 BD 32 75
 56 5F 77 8B 98 03 C6 43 EF 1F 72 A1 3B FA 90 B2
 8B 13 D7 CE EA 06 9B 19 5F 64 FA 24 B8 52 ED 11
 89 42 EF B7 EA 97 13 7D C6 2A 2F B6 CB 3A 1F E9
 D4 8B AA 98 69 B9 61 C9 B2 9E 0F 38 8E DA 62 7E
 2C FC 78 C4 35 41 50 01 88 33 9C EC 66 F0 32 A1
 B9 59 0C AD E1 DB 15 8F C5 CE C8 11 C7 B4 5A 28
 D7 5A 45 B2 36 BB 45 52
* End 615618814 329132028