* LTspice Encrypted File
* 
* This encrypted file has been supplied by a 3rd
* party vendor that does not wish to publicize
* the technology used to implement this library.
* 
* Permission is granted to use this file for
* simulations but not to reverse engineer its
* contents.
* 
* Begin:
 AE 3B 08 95 B1 63 F9 7F BA 9D C9 E3 29 79 46 DB
 E4 22 CF 0A 01 53 C9 97 CE 17 45 18 6F DC B3 18
 EC D4 5F 37 65 12 C2 89 C3 7F 13 85 69 95 22 78
 AF DE 67 26 D2 F3 2A 92 B3 7F 51 33 5C 49 82 69
 DC B9 87 38 09 BF 3D 93 40 25 26 7B F0 DE 35 64
 E2 8F CC CB B9 70 BA 05 EA 59 50 4D BD B0 79 36
 9B F6 30 35 A2 0D 8B 98 51 42 4E D5 B0 CD 29 8D
 8E A1 00 D8 02 49 E7 4A E3 3A A8 F5 73 74 8A 58
 D0 2E BF F4 89 87 AC 0C 6D 61 CE 6E 26 DF 45 55
 84 77 9E E3 98 8D 9B 48 94 1F 4A 3F 13 78 B8 21
 73 05 8B 7A 33 96 71 5D 1C CF D3 75 62 88 B7 E1
 BB 46 7D 22 EB A3 59 89 A2 50 6D D2 64 D2 4F 35
 39 41 34 65 E7 80 89 22 41 A8 FF AD 36 9E 2C E0
 21 CF D0 BA 01 52 CD 62 B1 D3 B3 C0 FD A5 2C 3A
 B0 C8 8E 4F 85 26 43 E1 75 19 B5 F0 64 EC B2 16
 64 39 88 E5 FE F7 71 24 60 61 E6 0E 36 A1 50 82
 EE C1 66 D4 86 BC D1 F5 21 C9 6D CA 62 F1 C9 C8
 22 FA 51 EC 0E 0C 55 9A B6 34 8B 63 07 F4 57 8D
 6D 3C F8 27 BA EA F6 C3 34 C3 E2 79 02 D0 EC 46
 FA 62 8B 41 DC 7D 95 28 08 CF 1E B0 95 01 9D 90
 02 F3 6E 4E 92 1F D8 F2 9B C4 5D B2 BB DF 16 58
 41 A9 A3 5E 90 95 27 2B B2 83 4E 0F 43 28 76 07
 96 1C 7D 6E AD 36 B5 C7 9A 7B 21 27 28 8A AE C8
 EA F8 08 23 56 2B 94 7F 4D 04 98 D2 C3 30 32 4F
 A5 F2 88 3F B6 4C 57 FA 4F 4D 99 2F D9 37 2B 3C
 D1 66 AC 62 13 99 6D 6D B0 32 1F 7A DB A7 17 FF
 1C F4 27 B3 98 93 3E DF 5B 72 E0 60 F4 B1 B2 E2
 78 81 F3 C8 DE A4 4B B6 6B 07 1E 07 FD 82 8C E1
 3A B3 EC E4 EF FD EA 92 E1 64 46 9B B5 9B FC F8
 83 DF C2 20 C8 58 13 A7 54 91 C8 01 90 F7 1D 8C
 EE 07 32 D0 36 C8 D8 17 EE 82 48 D6 B5 1C CF 45
 57 59 C7 86 29 D8 76 01 84 E8 C9 7D E8 8D 6F 85
 6A 39 93 96 08 8E 8E D3 AB B2 4C 1A CC AD 4D 6A
 65 BB 96 6F B3 27 89 EA 99 16 E2 23 64 5B D5 19
 BC AD 04 2B 0E D5 F6 10 6F 9D 1E 55 7A 0A 10 4E
 63 B2 1A C4 F7 C1 95 B6 61 0C 86 4D 3D 9E 1B 58
 45 64 CF 8B F1 9A 40 07 BC FC 90 82 F1 35 A0 6F
 8C 18 8F CB AC 36 99 42 13 DE A2 17 B1 A9 EB 1E
 DA F4 C6 46 98 A1 E1 46 12 F9 48 98 DC 90 D9 C5
 2F 47 75 24 FD 76 D1 D0 E4 15 A0 8B C6 23 05 F4
 0C 33 DE 7E EB 4D 24 D1 6E A4 28 77 FB 80 F2 A6
 CA C2 09 E2 AE A0 A2 25 F8 B4 70 5F 41 65 A2 FE
 A1 A1 3A 94 CD E0 2F FF 15 B6 83 A6 86 B4 82 8F
 D1 AB 79 C3 56 5E 85 90 39 C6 83 62 5B 46 C6 08
 05 27 83 4B 56 96 48 FE 5F 7A F1 8B 50 A7 7B C8
 AF B9 BA FD 43 C1 12 89 04 6B E5 EE 75 4C 0D 4B
 DE 42 93 61 6C FE 22 27 5D 03 E9 C6 0F 8C 63 E8
 44 95 C3 E2 4F EF 26 19 52 6A 2C 37 EF 61 45 FA
 0B 2B 52 DF 04 40 D4 97 9D 01 F5 8C 51 09 9B A2
 38 14 ED FB 92 65 FC FA A2 82 B7 F0 B9 20 64 FA
 27 9D B9 4D 3D 19 0B 99 85 20 0A 4F A7 7B 03 84
 91 69 2D 4F 94 C5 0F B4 FB 5C ED 09 6D BF B9 A5
 A2 51 6B BC E5 19 14 C7 E2 F4 97 B8 AB 95 3C 05
 F0 84 B9 CB 76 48 C5 67 E2 DF C8 17 B7 5C AA BB
 C9 6E ED E3 FA D8 99 9A 29 02 C5 F2 71 71 2E 9D
 98 F5 28 85 3D 60 B7 19 91 D3 EB 13 1A D5 E2 0E
 E5 CE ED 91 57 E3 CA 89 98 31 1C 59 49 1F 9D A5
 70 49 BB 93 06 66 45 9F 23 84 77 7B 28 32 03 72
 38 DD 2E 58 86 93 96 C4 E7 71 4C A5 B8 C2 30 10
 65 E1 76 3D 24 FA 5E 64 E2 7C FF A9 9D 2B 7A 47
 B4 3F 95 16 D8 3A 77 7E BF E5 65 0B C1 50 BB 6A
 81 F9 DF FA 43 79 80 BB 67 C4 4F 7B 02 E4 CF 84
 56 27 82 AB B7 6D 91 A3 6C 85 33 D4 7F A3 3C BF
 FF FA 7C CF C3 78 8A F3 45 D4 90 56 96 0B 4A AE
 20 BB 35 38 72 09 C6 8F 07 A3 94 93 2E F3 3A D3
 03 8C 65 38 CD 25 BD AD 81 01 24 79 58 F0 CA EF
 4A 0F BD 79 56 48 2F A0 3D B3 73 80 34 51 92 92
 E7 F1 62 81 F9 47 17 C8 35 03 23 4B 40 87 8A AA
 F4 B7 6D 5A 44 98 C8 BB 04 C1 94 DE 2D E0 8E 83
 9B E9 46 AB 6F 56 0F 51 4D 63 90 04 49 53 F6 84
 FF 7F BC BD AE A8 81 68 F6 A0 D0 B6 65 44 4F 20
 AE E9 B1 FB 05 59 AB 0B 07 8E 73 19 45 33 8E 8C
 3C 5E DB 80 EC 6C 96 2D FD 32 40 49 5F 4F 8C 5C
 89 9D 27 69 55 7E A4 8B 1B CA 26 92 08 E1 86 D3
 A4 A2 2A 46 A7 A8 60 DC 11 AF 7A 2F B1 85 EC A0
 AA 3E 3C 30 15 F0 8A ED 2B 40 65 B5 97 CE 2A 2C
 57 B6 1D 51 7A 99 13 4F 13 79 DD CF 05 A9 C2 DF
 5C B8 FB 22 04 EC B6 F8 75 E1 D0 9F 71 44 AB 93
 4B 6F 53 33 58 D9 18 A7 52 97 46 23 36 0C AF 4D
 4F 45 BD 57 F9 56 96 7A 8A 9F C4 74 CA 73 D9 67
 A7 4D EA 88 A5 9B 0F 45 A7 16 02 BD F0 74 ED 85
 98 26 14 0F 4E 58 1D 33 08 58 52 E0 76 D3 86 5D
 FA 8B B6 05 E2 60 12 BC CF FE B6 EA 63 46 54 E4
 9F 16 2F 4B 17 B9 57 33 9F 84 1C 4D 42 8E 71 02
 1C 55 2A 43 02 1D ED 3B AE 56 F0 E4 EC 74 7C 73
 E8 E8 C3 F5 C9 3F 86 E0 D9 59 E8 98 2B F9 B2 39
 4D 6C 50 EF 2A 35 B6 05 A2 06 DA 04 3E 22 05 51
 CE 01 34 F2 30 AB A0 BD AD F2 22 05 E7 EA 39 5C
 20 1A 3C A6 F7 3C 03 4E 40 07 F7 34 CF B3 0D 25
 D8 83 09 E1 87 68 5D 1D 46 9D 51 0F DF 74 5A 1A
 A9 7F DD 00 ED 7E 4E 7A 36 93 F2 E8 30 75 22 75
 16 EA C9 87 2C FE 42 F5 42 26 B1 71 20 E6 C7 37
 14 D3 20 75 72 B7 16 07 2E 14 14 62 23 F9 A8 6B
 F5 82 50 A6 62 F9 51 75 85 7D D8 89 54 AB A9 5D
 26 A1 BC 57 51 09 90 88 C7 A0 F5 4D 1E 64 F0 BE
 06 1E A5 CA D2 26 32 D4 7E F4 5D 0F 84 A8 C9 82
 4B 9E 62 22 76 F5 F9 FD 68 1A DB 75 42 38 F8 A1
 CD 8D F9 83 97 05 A7 35 BD 17 C5 85 42 BF 77 9D
 CF F3 A0 7D 7C 64 DB 6B 19 D1 B4 0A 6C 01 E4 1F
 37 DF C9 C9 DA C8 0F EC 27 17 B9 97 6A DF EA 99
 B5 7A 3A CF B6 85 79 6C 5F FE E2 48 25 C0 C7 17
 03 FD 35 49 0F 65 EF 05 9B 12 21 81 9C AD 55 D4
 02 3D E6 BA 9F B9 D1 BC 14 2F 94 E0 A8 1E E5 93
 95 6C 0A 5E 2E BF 28 CA 6A 1A A3 48 BC A1 05 97
 6D 7F 42 2F 58 F1 64 DE A0 22 1A D1 E4 FA 7F 63
 53 5E 18 26 FF 0F 61 3C 63 3C 05 CB 77 8E 55 C6
 83 57 DF F5 CB 91 79 C5 07 BA 58 E5 CE 06 BA 82
 66 B8 9C 62 30 E4 7C EA 37 EA 57 FE 75 00 99 B3
 D8 1E DB D0 72 3B F5 9B FF 82 0F B4 97 26 FB 6C
 9E 3D 82 A2 91 21 A5 12 67 74 C6 A6 C8 E1 D7 DE
 7A 4F 1D B1 B0 73 BC 8F 95 3F 12 C5 F7 3B 15 76
 C4 52 71 EC AC EE CE 94 0A D2 7F D6 CA 67 76 D9
 57 75 79 2F 78 AD 24 73 58 F6 09 7F 38 EE F1 18
 3E 39 E8 63 04 FB A4 D9 90 58 23 B3 F8 07 39 FB
 1D AF 9B 57 B4 41 34 4C 28 A9 D8 1F F2 57 F1 54
 7F 71 CE B0 72 5C B0 40 4F 40 64 48 BB 33 59 3D
 1B 50 BF B1 47 D5 4C 6A 45 B8 68 C2 3F 0E CD F8
 A1 78 12 9B 95 5E 71 28 C2 A9 E7 85 E9 1C 7E A4
 62 CE 19 3C 77 EB C1 30 6A ED 94 7A D6 E3 CB 06
 90 97 EC 0C A3 C4 9C C8 91 A5 B4 BE 0F 64 7A 05
 AC F0 73 EE C1 3E EA 26 1B ED 66 21 01 AD B3 6C
 80 D6 20 74 90 30 15 F9 74 25 F8 BB 5F 28 8E EB
 15 62 AF 9C 63 70 08 A5 3B E1 E2 F1 A5 98 69 92
 2A 38 D8 75 2A B5 74 44 B6 52 13 22 0C 39 CA 80
 F9 92 68 C4 01 92 BD 30 AE A5 FA 1E 0D CC B7 EA
 14 9A 1E 5E 45 63 BA F4 AF A6 54 56 FA B6 8F 2C
 90 FB C1 67 4E F7 CC DD F6 73 2D 79 C1 B0 B2 19
 8B BD C6 80 FA 74 81 17 F3 40 A0 A5 26 FF 2D 5B
 94 77 EF EE 23 0E B0 A0 49 2B F8 A2 DB 2C 81 33
 E6 A2 00 36 97 85 93 C8 F3 40 4E B1 A1 3A B2 6D
 8A 26 6D 68 24 E5 43 1C 7C 9B B9 31 51 0E E9 EE
 13 1F 41 43 37 15 72 B0 B3 81 A3 C8 5D 73 19 F3
 CE 2A 2F 9F 7E F0 15 0B E8 1A BB 84 77 19 A8 8F
 8E D1 95 24 1F C6 60 0E 84 88 FF AE 87 4F 20 5B
 B4 7B 6A 9B A5 B1 E0 83 87 3E 3B 1A CA 6A FC 89
 C3 62 F0 11 93 2C 21 3C D4 39 B3 EE 08 5E 4B EC
 DE 19 91 D4 63 12 03 05 31 F5 B1 EF E9 78 7F 76
 EA AD FD 27 46 10 EE DF A5 DF 14 55 32 CE 80 02
 97 E7 05 DB 1A BB 18 8E 0A ED B0 1E FA DD D5 49
 3B 05 CD 6E 3A 8D 6F 14 0D F9 C6 F9 24 37 82 99
 36 17 7F 0C 5A 59 1E A3 CD 0A 6C BA 2D B1 D6 7A
 51 C7 0D 2B 0D 06 2A 23 D4 E6 9B 3C 44 BC 03 BA
 B3 DD BC 3E 08 86 CC D8 DD C3 25 BC 35 F6 DB 91
 C5 0D 59 B4 CA 77 79 53 7E A2 D2 85 16 9C 50 14
 82 01 C9 33 0D 98 BB 4B E8 29 F0 2D 14 9A 4F 3C
 4E 2F FB 14 CD 97 95 8C E1 B6 9A 2D F0 EE 2C 2B
 14 A4 2A 66 74 25 8E C5 1D 7F 29 4C B6 C4 27 00
 05 9B C4 AF B1 FA 04 E3 17 14 9A FB 72 7E A2 D2
 E3 E5 7D 8F 8D 88 D6 90 3B 57 AC 2E 21 95 69 8C
 EE C4 B9 86 C0 0E 35 0C 91 DF 30 6B 11 98 C2 81
 8F 92 3F 83 69 F6 91 A2 8F 25 24 50 D4 65 4F 79
 F7 98 03 14 18 E7 86 C5 5E 46 0D FA E3 BE 56 E8
 C5 4A 12 E1 1C FA E1 8F CA BD 1D 90 C6 A9 4C 9E
 7B 46 26 E6 35 EB A4 17 BD 87 4F 79 1F CA 9A 04
 96 45 B9 75 43 DF E3 EF D7 4D AA 82 CE F2 B6 4B
 8C 70 D8 86 14 C8 67 84 5E 74 FE 18 F0 7F B5 62
 5B DE E0 3C C4 43 5F B8 0C 4A B2 99 EB E9 BC 44
 89 D7 95 AA 7B 5B BB B0 2D B3 E8 94 BE 89 32 CC
 CB 63 23 32 F0 4C D2 0D 78 8B 05 35 57 6B 82 48
 6E F2 4F 05 10 84 68 6F FD DE BB 4E 77 08 C0 29
 E0 6A 02 46 B2 C4 E4 4D D3 0E BC 51 4F 78 6B 39
 C5 C7 32 F1 20 D7 FD 6A 86 3A D8 8C E8 FA 81 95
 E5 D8 83 19 4E 9D 29 17 BF 1C EA 50 7A 5E 29 A2
 F8 C1 0A 3D DB F8 2A 3D CA BC 39 1C CF 66 EC F9
 B9 94 80 67 33 93 8C 6B CD E0 CD D0 12 0B 3C DC
 33 68 63 D0 8B 40 06 50 70 46 D4 0B 81 4F 95 B4
 B4 1A 8A 65 5E E8 B5 B6 7F 18 8E 6E 03 78 37 52
 4C 13 57 E6 9F 83 AC BC 8F 7A 25 E1 BE 4C F9 A5
 D0 D1 DB E4 FB FD DE 23 EB AB 0A 8B 6A A2 6B 56
 02 0A 9E BB CE D4 51 47 B7 04 E5 13 0A 31 6E AF
 B5 44 CB 19 10 7F 3C C6 14 4B 62 BD 63 83 73 81
 BF 69 6B 64 AC 30 CC F5 94 D5 82 04 68 FF 9C FB
 F7 DF 6C 1E 51 BA CE CF 53 45 A5 40 17 93 1A EC
 85 2F C0 50 8D 6A EE 56 EB 6A B7 9F 18 6A 93 E9
 0B 66 52 61 AF 78 40 45 14 AB 8F C5 74 26 5E 59
 F3 0A 55 9D 11 AE 68 27 7E 21 1E B5 33 0C BE A1
 1D D2 DD 7C 27 97 7B 9E 4C 4D 9B 8A E6 93 84 FF
 52 5B 42 A7 09 47 E7 7C CB 6B 3F 38 D9 21 52 B7
* End 1942170366 2771679751