* LTspice Encrypted File
* 
* This encrypted file has been supplied by a 3rd
* party vendor that does not wish to publicize
* the technology used to implement this library.
* 
* Permission is granted to use this file for
* simulations but not to reverse engineer its
* contents.
* 
* Begin:
 D3 0B 52 EB 52 90 F7 CA 64 E2 BD 21 E9 5F 30 0F
 75 69 AC 3D D6 8B 8E B1 86 6E B6 BB E6 D2 5B 1C
 C6 EE 46 5A A2 4A DA FE 06 EC 00 D6 CF A5 DF C9
 0F B2 0D 22 D2 B0 F2 58 7B AD B6 2E C9 A6 B7 4E
 2D B9 5F 42 8F DA E1 E5 AF 02 FF 79 E3 90 30 E6
 1A D6 AF E2 4C 2C 9B AA 24 57 73 C6 D1 38 60 9C
 F1 4E 9F AB 64 EB 45 C2 86 A4 1E BD 0B EE 77 56
 94 60 43 49 66 76 35 D5 CE CC 8F 9B B6 D5 48 ED
 49 9B 67 E1 C0 A6 09 8B D8 84 A6 1B 77 5B F9 1B
 56 0E B4 7C 4B B4 5D B3 21 AF 64 34 90 E9 EF FE
 76 0C 1D 07 E9 95 99 0E E8 73 2A E2 21 64 28 C5
 A2 B6 73 94 B9 D3 15 60 AE C2 18 DF 97 D1 7B F0
 4B 5D C2 FC 87 B8 CE B5 D4 EF 91 2D B6 56 F8 3E
 00 53 55 26 43 65 D1 7F 60 F7 03 0E 48 C4 49 14
 3C 1F 71 AF E0 3A 3F 1B 79 49 34 88 4D E4 E3 38
 EF 18 8B E1 72 3E 93 6D D5 D1 0F A3 F3 71 1F 74
 5E D0 28 5B CF 71 9D 21 64 E8 72 E9 70 53 7D 79
 4B 6F 92 E2 7C DF C0 B4 2E DD 7E 1D 35 F5 31 73
 11 3F DE 82 C6 8C DE 54 E9 5F 9B F9 7F B1 65 1B
 9C 18 A1 4F 01 58 EB B1 E2 41 3C 88 E9 35 E5 09
 62 34 9F 88 57 CA 0A 0B 5A 81 55 68 4F 04 98 D6
 32 5F 21 D5 05 DA C6 0C FC 0C 10 67 93 16 38 DA
 1F 95 6A 85 56 0C 92 F3 2E 10 2A 5D D6 59 70 B1
 1C B2 6B BB 05 26 07 0B 2E 3B D9 FB DB D1 CA 98
 61 8C 2E DA F9 D0 96 9C 0F D3 5F 52 13 11 08 4F
 1C A3 AD 60 80 30 7D 53 11 FE DA 2D 27 84 CD A1
 98 03 7C A2 33 5A F8 6D B9 0D E9 D8 74 49 86 F7
 05 09 DF C9 D5 CB E0 A4 0D 91 CA 43 93 EB 3B BF
 2F 67 C5 FA F8 AC 50 5A EC 00 5E DC 6A 42 98 65
 88 AD 94 FB AF 3D E4 39 E1 68 48 F4 EE CD 53 8D
 B8 91 9B 62 37 B0 F6 79 FE F2 60 78 88 B5 28 F1
 6F A5 61 33 69 F9 70 41 0E 0C 11 12 22 42 AF 96
 93 E7 65 0D B7 BE 97 8B 97 AB 66 6D 4E 82 BB D0
 93 92 11 C8 F1 7D 06 71 C7 C5 8C 7E 16 2A F3 F1
 A3 8E 1D 64 3C 52 3B 90 64 2C 17 3A 71 52 BE E8
 A3 42 63 D8 5B 7C 6B 6D 7C 97 6C 75 7C CC D8 82
 63 2F 87 8B DC B0 59 BB 7F A8 39 D5 36 9A 3F 8B
 E4 C4 F3 57 6C 72 57 AC AD 92 86 54 EB 01 7A F6
 FA 77 23 1C 68 75 4C DE 73 99 20 EA F8 A6 C4 89
 EF B8 66 3A 12 08 7F AB 90 39 E4 73 3F B7 F2 04
 73 38 CE 93 AF 2C 75 C7 BF 6E 4A 48 10 63 BE E3
 D9 95 AF D9 12 FD B0 31 D2 B6 23 86 F2 C2 23 95
 16 B7 85 00 C0 66 87 C5 0E 04 E3 8C FD DC A9 58
 56 B9 F3 92 91 9B 27 E4 73 0F 04 9B 14 5B 46 66
 F8 7A 4F A4 D7 9F 42 83 94 CA D1 38 F3 C5 2A F9
 2B 0D B2 7C 03 99 F7 33 56 74 CA 9C 6B 00 34 8E
 D1 07 0F CA 8F 98 D4 68 36 04 1D 06 D0 22 6B 84
 F8 29 EA 12 64 23 39 17 5D B4 50 2F A2 C0 6C 96
 EB E5 EB 38 7B 65 2A 4F 71 2B 25 49 D1 B0 A8 90
 A7 46 0F D2 7A C6 A5 5C B0 92 03 C2 0D D5 C9 A4
 79 F2 B8 A9 79 DF A4 21 BE FD AC 3A A3 54 39 51
 71 DA 7B 3B F6 52 C7 F1 E0 C9 1B 98 E5 5B 91 10
 65 07 B6 E0 48 A3 03 AF 32 B5 F9 ED 25 A5 9C 62
 3D 3C AE 67 32 C0 F8 9F A5 7E 22 72 93 F8 91 A1
 63 EB 52 C6 5A ED DD DE A1 C1 AB 38 76 E8 83 2D
 38 AF 1F AB 72 09 94 76 C8 02 95 0F BD F8 FF D2
 C4 18 84 DF C4 7C C8 55 3B BF 58 3A D8 28 CA 88
 D4 C9 68 8B 17 43 7A 7E 84 98 BE 95 C4 6F 16 29
 A6 6A F2 14 E9 BF CD EC 14 91 57 37 E2 95 BA 01
 56 5E 79 33 FC 26 B0 E8 CE D6 C7 8C FC 3A 9A D3
 53 86 9F 2D 39 AB 57 59 2C D8 BA E6 75 84 01 1D
 ED 60 90 45 24 0F 4D 82 56 E2 E3 F5 80 4F 34 95
 D8 AF DD CE E3 5B AE F2 AD 88 7C E1 DE 3F 08 C0
 F2 1A FE F9 E1 99 F1 6E 0D 65 75 39 5E F6 33 D5
 D5 F2 BB D6 F9 FD 71 18 06 B0 6C CC 03 7A B0 82
 53 ED F3 9E B8 68 CE 4D 0D 90 E5 92 1C DA 48 22
 38 90 05 04 D8 32 E3 F0 DE 5A 48 E4 E1 2F 15 F5
 C6 AD 97 7B C6 A4 BC 34 3F 05 FE 77 D9 D3 C4 6D
 09 38 0C AD DF 25 F0 B0 79 59 E8 E3 94 07 9C DC
 1E 45 CA 57 B7 09 58 87 B2 16 01 1D 59 01 84 CE
 93 B5 BD 8F 7D 15 1C BE C4 B2 07 6C 19 6E 11 95
 04 2E 9B 61 D3 C3 B5 90 7B EE 79 C5 5D AB 39 27
 78 55 85 F2 89 B8 8A 6C C1 36 23 CA 89 EC 6B 09
 E3 3A 38 8C 03 49 50 C5 42 A5 37 B7 48 72 3B 70
 EA 5B 90 8E 2C AE 8D C5 51 0D 7E 86 FE 43 87 3E
 7F EC 6C 84 5A B2 55 84 BB 73 C6 00 66 50 44 43
 3D 89 27 35 E5 96 4B 60 A3 03 58 98 5E 93 2D 00
 BD 86 59 16 B5 2B D1 66 CC 87 12 55 26 0F 0F 9E
 8E 75 46 DE 0A 9E 40 82 F8 B1 07 04 59 F9 2F FC
 F8 8E C9 9C A8 C0 F2 FB F3 D2 20 1A AC E5 BF 2B
 74 23 2B 70 A2 88 BF 12 03 BF 18 15 B3 DF 33 7B
 00 98 75 B2 D4 4A AD BC 13 C0 29 05 5F 5F 02 92
 84 CA FE 92 C9 4B 55 B8 74 38 B9 42 45 27 FD 1B
 DE 99 1B 13 EF E0 41 5B 16 34 4A B7 7C 52 AE 6C
 6C A4 80 9D DF 95 A1 C9 19 3B B4 D7 75 F3 1C 1C
 75 DB DE D7 A1 A9 17 CD 28 3D 12 11 7B 06 2A FB
 66 23 08 F3 A9 CC 78 7D 11 B0 E5 A3 2A 12 D8 1D
 45 E2 0F 42 51 0B 23 D9 FA 6B 59 0D 5E 3F E5 BE
 AB 72 48 06 9B 6E 40 DB E9 49 4E 22 50 F6 2B 4F
 09 3D ED 7E 83 59 CB FB 66 E6 D9 0F 76 0A AC A2
 3C 42 CD E5 EB 4A BA 41 5A C6 D7 17 41 5A 5D A7
 10 4B 43 B5 16 09 B9 C4 3A 0A F1 2F 5A 90 F4 9B
 08 2D B3 F3 40 38 D1 3F A0 01 2D 33 75 FA A5 37
 45 53 14 0C EE D6 1B 62 1D A2 E4 66 CA 54 E4 C7
 AD 66 2D 62 0B 1B 95 A8 AD 02 B4 97 42 6E A0 EA
 E4 4C DC 66 DD 2F D2 EC 24 1B 5B 17 7C 9E 7B A9
 4F 16 FC 28 4F 24 E7 F5 42 5B 43 21 64 3D 76 EB
 0A E3 F4 7C DC 6E FB 9E B3 10 5D D0 C8 51 9F 54
 DD 48 4F F5 68 C7 03 A9 F2 DD 3A 81 BF FE EA A5
 33 59 84 7E 76 11 60 C7 35 E7 16 A7 82 DE 59 B0
 D6 9C 88 F9 C4 39 1B 29 FD 63 DA 57 E1 4E BE BE
 87 3F 56 84 41 D1 2C 5A D5 34 5F 73 90 2A 31 8B
 20 3D E4 1A 4E 22 30 35 2F 0A 8C 7C 7B 2A 4E 05
 D4 DC D9 E3 D5 D1 C6 12 F4 47 4F 62 3B B9 B2 FB
 F4 C3 B4 CE 96 F5 A8 B8 DE E7 8E 78 25 0B AC 54
 EB F6 EC FB 61 2D 77 68 26 EE 8B 62 33 E7 51 B4
 1F 59 24 98 DA 78 2F BF 1D 69 6F 62 84 55 03 AE
 69 A7 82 2A D7 0F CF 70 D3 73 34 CE AB 97 AA 3D
 32 10 B1 FA 05 5A A7 A6 A3 28 0C 0D FA 19 28 36
 03 27 44 DA 29 A2 FF EC B2 8D 12 A0 C0 B2 37 58
 CD BD 38 00 DC B2 B8 AA 8B A0 F4 98 8B 97 39 36
 CC 5B CD F7 BA 6C 3F DD F9 0F 91 87 A4 87 01 26
 E4 3C AA 85 5A 2D 7C 33 1E 87 2B DE 23 88 A0 55
 C0 D5 9C 15 1C 91 F8 E2 DB 72 EF CB 65 6E AF 68
 8D F3 3E D2 71 98 19 52 CF A5 F4 0A 1F E7 A8 99
 B0 0C E7 CB 7D B5 A5 3B 0B B1 20 48 26 42 43 7F
 E6 E1 63 1E BE FA 5E F8 72 9D CA D9 66 67 7B 11
 A4 11 28 3B 2B 42 73 F3 20 C3 88 AE 5E 55 7C 0A
 6F 61 18 9E 0D CE 51 96 34 35 47 01 A3 FF 69 4F
 67 6E 7B 27 5B 82 28 23 9D B1 5E 77 97 D3 8D 2C
 4E BB F8 C1 17 61 DA 9E E7 87 6A 6A 95 2F DA 17
 88 FF EF 5B 75 A6 B5 E5 42 51 79 54 66 25 D6 54
 01 A6 BA 29 18 6F 89 0B 55 5E 97 79 03 2F A6 A5
 D2 05 2C B6 FF A3 49 1E 35 1F EA 2E 51 65 7D 28
 3B 35 23 28 CD 31 94 21 DD D5 1B 60 2F 23 12 A3
 B6 BC C7 5E 74 19 50 D0 D5 03 CB 14 F4 FE E6 9B
 A0 2B 98 F8 64 DC D2 70 51 CC F2 AF 4C 78 06 A2
 22 26 D3 0B 2D CF 40 23 B6 FB AD 34 16 5C A8 CA
 AE D0 1A 71 1C 10 F7 79 B6 4F B1 9A E3 31 1C BC
 32 DC 9D 4B A7 EF C1 3F EA 40 12 F9 1D 63 8F 0E
 C7 3F A2 13 6C E8 87 C7 BF 7A DC 99 A5 A3 FC 41
 7E 69 74 C0 CA 05 09 62 D1 AA 7E D8 BB 70 45 60
 A1 EF D9 3A A7 3F F1 5C 19 58 2E F0 6B 89 8C 66
 2A 7F 2F 12 A8 5A D2 14 26 58 99 B0 72 62 AD 10
 31 05 66 3B 15 35 4E DB BD 0D E5 62 99 28 D8 02
 29 B7 B2 2F 58 EF 7D 00 17 6D A0 9E B7 18 6F F2
 DF 90 10 4B 7C 71 84 7A B1 42 9D AD FF DF 9E 78
 07 02 3A 67 B0 0D C4 E3 DB CE 9E 74 CF C3 3C 2A
 EF 56 0C D5 6F 46 33 89 6D 36 0B F9 C8 A0 01 31
 A2 DE BF 56 E7 42 2E 19 91 D1 9F 73 C5 49 37 FF
 B0 00 D4 33 DD B3 B7 21 42 13 37 0A 3E 7F EF 1B
 18 F5 19 A9 A2 F5 56 E2 58 0D 1A 46 58 17 D4 85
 13 AE 90 51 ED AF BD 69 0A 61 57 8E 97 43 0B E6
 AF D5 74 8A A9 10 DB 6D 5F 20 AA B5 57 DF E5 23
 C7 BC 1C 74 45 13 0F 1B 56 0C 73 8D 2A 15 F4 F5
 C4 5C 84 3A E3 8D 57 E5 71 1F 12 D9 B2 93 2E 87
 85 82 FF 58 EC 67 26 04 41 B6 2A 45 26 0B 66 D6
 1E 3B 3F 3C 61 F4 E3 AF 4F 58 6F 72 C8 BA 6C 2D
 B2 56 1D B9 14 97 88 6A 13 61 6F 27 8D F7 B6 67
 91 88 17 3E 4C A6 99 7A 48 81 AB 5A FB EF BB CC
 BB E5 CA 91 22 24 80 3B 97 8B FD 4E 7B 71 05 9D
 E9 64 E7 64 C9 B2 11 DE 77 5A 02 CD D7 9E 6B ED
 DF 39 DE 14 FB 04 B7 D2 04 34 F5 37 16 81 A0 8B
 7C 7D CE 84 56 64 50 9D 8C 96 75 61 38 52 EA 15
 95 59 A2 9B C4 1C AA 7A 4C 85 BE 5C EA 6B 81 89
 86 5E E4 7A AF 97 61 70 1D CC 60 ED B4 9C 24 E0
 B9 31 67 5B 8D CF ED CA 3E D0 AE 08 92 89 D3 4C
 EB 0F D9 1C 93 5E F0 35 57 86 9D 4C 19 F8 28 84
 88 5B EB E1 46 0F E3 1A 1A 8D 40 7E BC F0 8E C9
 69 55 CC 23 A3 ED CD EB A4 52 3D 6A 1D C8 78 71
 9B 97 CD 5F 3C E6 75 6C 14 51 0F CD BB E7 54 90
 78 16 0F B7 6B 0E 92 0C D3 D0 03 2C F8 14 ED B4
 00 04 6F 59 8C 7D AA EC 8C 74 C5 66 85 57 10 A2
 DB E9 B1 7D 8D 84 96 3A FE 7A BA 8B 20 BD 0B FA
 6D 38 0E CC E4 56 C7 AC 92 71 D8 FC 88 86 57 66
 06 CD 15 F4 65 93 5E DD 74 1A 20 2E 34 18 94 6A
 21 A5 2C DC 23 A5 EE 74 B2 15 1F F2 76 D5 22 70
 B2 CF C9 3B BE 12 3A 47 69 53 2F B1 C2 0E AD 42
 B7 4C 44 4F 72 AC A5 D2 02 FC E9 A0 DD 50 CF F5
 EF 54 DD D5 39 0D 16 A2 32 FD 0E 8B BD FF 6E 9F
 38 39 2A 4B F3 3C F1 63 A6 E3 58 D3 3F 76 17 F1
 E6 C3 7B 9C 6F E3 35 7D 54 D5 9F B2 FD A1 35 F1
 15 73 9C D9 FC 32 18 25 B8 79 63 DB 38 54 8C D6
 8E BF 15 82 9E 01 8C 52 64 F4 42 69 78 36 0C A0
 A4 1E 52 21 54 4D D8 2E 74 11 B8 03 47 22 5C 4C
 33 3D 9F F8 A2 D3 51 8A
* End 950074378 622161230