* LTspice Encrypted File
* 
* This encrypted file has been supplied by a 3rd
* party vendor that does not wish to publicize
* the technology used to implement this library.
* 
* Permission is granted to use this file for
* simulations but not to reverse engineer its
* contents.
* 
* Begin:
 71 AB 9F 99 C8 D7 B2 EF 78 44 54 DA 56 30 70 C8
 C2 4D 3A 12 2C C0 BA CF 7A 78 E3 F6 86 43 95 46
 6D 4C 13 AD C2 E7 25 85 76 4A 91 4E 15 3B D6 BB
 C0 AA 55 6C 2A 0F CC 48 88 05 64 DF 90 D4 01 CF
 17 6C 1F 29 6D A3 FC E1 C9 62 5D D7 8F 51 2A 44
 54 C1 F7 78 FC 12 D9 B1 50 D2 19 A5 A3 65 EE 93
 5E 81 51 8A D0 98 70 62 C3 26 D0 D4 F9 89 16 D0
 C3 BB C9 FA 67 CA E1 3F DB E4 22 91 A5 9B DF E1
 6F 9F F2 09 BF BC 17 4F 3F 2E B5 2F B6 0F 5A 00
 DF EE 05 07 59 C3 EF BF 0A 4C 7D 9E C5 97 C4 16
 E9 AD 72 6C 4A 43 3A D8 5E D9 66 2B 3D F4 27 36
 9B 9E 9C F2 75 D1 23 48 67 A0 AD 52 41 35 47 1C
 4D C7 0F F1 BB 5E 9E 8C 7A BF D6 05 04 45 07 37
 7E 43 C6 BC 4E E0 4F 5B C8 28 25 02 0E A9 73 49
 DD 96 D6 50 1C F1 AF 4F FF 6C 03 80 E1 B3 50 90
 B4 41 99 D0 76 1B 4D FE 0D 0E C1 CD 59 9A 59 CB
 DE 54 6E C1 AA D6 FA EF 07 3F 0F E2 CA 81 D4 C5
 32 DA 8C 5E AA 3A 64 FC 74 A9 78 4E 22 40 92 2F
 C2 69 1F FD 63 8D 0B A1 3B 5E 9B 02 BF 23 21 23
 A1 20 01 57 8F A7 95 A3 27 10 B3 0C CF D2 5C 0E
 7A 1E 79 4C ED 09 48 1C 2E 47 74 1F 86 30 F2 F1
 73 D5 22 A9 06 54 95 0D 8E 2A 30 4A 61 24 9E A8
 1E C2 56 67 15 06 92 59 CD 99 78 C3 FE 1C 24 DC
 F8 C2 A5 AA 66 17 13 40 B1 A2 E4 FE 50 E6 3A 46
 EC A8 C0 BD B5 68 63 BF EB 1D 35 7E ED 40 48 26
 5C 8F 92 BB 9F D9 71 C5 A2 B7 A9 E1 7F 4D BA 82
 EE F1 18 AF 23 A3 17 50 A6 87 18 DA 3F 66 DA F1
 0E 3E 41 01 BB F4 05 47 3A 8D 31 70 D8 B8 10 2F
 EC 50 D2 2E B2 C9 A8 94 48 E1 29 6A DA 91 FD D1
 59 C8 8D 09 7E CA E7 A2 5A 42 1E BB 1B F0 D5 77
 ED BD 2C C9 AC EE D1 F8 35 8E 86 CD 0F 9C C8 CE
 FD BA C1 B4 12 F6 BC 25 DF 71 E2 E1 15 A1 F2 1D
 4A 50 84 3E F5 A8 A3 20 F3 E8 FA E7 4B 8F A8 85
 49 A8 D2 A6 4A 00 D1 25 D4 AA 51 D1 01 BD 2D F8
 68 86 54 94 2E 39 3D DF 75 9B 5A 5E 9D 7A 66 6A
 5D F8 AE 72 AD CB BD 6E 68 14 FA DA 3F 4C 6B BB
 5A 99 2B 04 33 C6 47 97 87 6C BB 70 E8 A3 95 9D
 3E 01 A3 F7 62 72 FE 1E FD AF 87 35 BB 89 81 DA
 DB 81 20 9B 84 17 4B 11 1E 55 FA 09 B2 A1 86 C1
 1C F3 27 33 55 B9 21 1B 4B A0 2C EF D2 CA 11 ED
 40 26 48 6D C1 AC 5F F0 E1 B8 6F 76 5A 83 C3 CD
 6E EB 52 5D 75 99 4A 0D B3 97 F1 B8 34 A5 44 F0
 29 CD 5F 6C 58 FE 82 2B 81 92 9E 6C 95 E5 D5 6A
 1F CB 01 6B 02 C9 BC 53 93 B5 A0 11 F8 03 99 78
 16 8C FA CA 3F B5 4D 83 02 4B 6B 1D 6B B0 E7 A0
 8C B1 50 57 A8 0F EB 28 F3 B1 B5 F8 3B A4 5C FE
 C9 FC 1B 3F 27 C7 90 5D 76 A5 59 E3 95 AA 49 0C
 10 B8 B7 53 0D E1 7A B7 37 9A D9 82 9E B4 7B 4E
 9D 2D 37 CB 49 B2 5E 03 5A 55 3F 24 36 AA D7 50
 17 CE AD CC 78 4E 99 86 6C 85 FA D8 83 17 64 5C
 46 00 8C 55 47 2D FB 99 52 65 64 71 1C C3 65 6E
 5D 6D DD F5 43 F7 1D 70 80 A9 15 06 1D 52 A0 D4
 53 80 16 32 FF 38 B0 86 60 2E C6 DE 02 BC CD AC
 E2 4F B4 B3 72 D3 21 81 9F 08 52 92 09 F6 04 98
 CC 78 A1 1C 7A FD CB AC 88 60 AD 4E 66 D7 B8 30
 58 3A 37 0E C6 39 47 7B 20 2A 23 3C CF 90 96 05
 19 D0 DA E3 52 5D 4F AC 47 B0 11 15 17 2A E0 2A
 25 E4 C4 35 9D 25 2F 7A 0F 9B 55 4F BC 70 0C B7
 8C 8B 45 A1 8D 57 CA 79 D3 C6 C1 23 BA 09 51 60
 0C 68 67 24 B4 92 23 38 00 2D 9F E5 83 A5 DC 2B
 6D 99 8C 9F 8C 02 7B 15 BE 6C 15 8C 4F 4D EA 57
 86 0F 08 18 1C 09 7E 44 06 FE 1E 1D AE F8 9C A1
 80 AC 3A BC EF 6A F5 6B 99 2E 32 E5 86 65 4F EC
 25 14 E8 BC C5 E7 97 42 45 D5 6C 39 ED 2C D4 7A
 6D E4 8E 20 4A E4 54 97 8F ED FF B4 B4 1B 0C C8
 45 50 F4 13 66 44 66 5D B8 73 42 8A 6B B2 2D 19
 1B B9 87 DF 52 5D D1 6B D2 30 72 E7 B4 11 54 C7
 16 A9 8D 7A 89 E3 29 46 5D 99 F6 96 27 8B 08 EF
 55 20 44 1A 0D 0E 17 A6 14 9E 9F 83 D7 9D 36 F3
 06 7D 11 83 C0 AB 19 64 A4 F3 3D 5F 85 88 80 81
 F1 2B 4F 2D 12 30 7B A2 69 C7 5D DE 24 B8 C5 D7
 32 AA 61 EA 7A CE F3 8B AC EB 50 0D 0F 4B AB B1
 BE 2C 36 DB EE A3 08 98 1B 34 39 A8 66 5F D2 6D
 1C E7 F6 5C 41 33 77 C7 4E D4 0C C6 0A 94 4A 50
 11 D4 29 20 96 C1 4A A5 22 38 D5 98 B4 78 20 D0
 3C F7 58 B0 5F 3A 11 D8 E1 20 3E 89 7F BE 29 81
 29 9E 1D 9C E9 74 08 0F 79 46 C9 A2 94 17 D4 B7
 B5 22 AC 90 2F 0D F6 B4 B2 61 1C EC E3 DB F5 9F
 F3 42 6A D7 18 15 C0 9F 94 83 EF 1C 1F 86 6A D4
 A4 82 78 FF F6 BC B3 1E 5A A6 C2 01 4A BC B1 3D
 D5 70 42 39 D6 F1 A0 B1 DB 26 AC 04 2A 75 1A 74
 6F 98 E2 38 54 3C 6A 81 F1 91 B4 C7 B6 94 51 E9
 62 90 41 87 CC 4D C5 12 A2 67 C5 70 C0 0F 69 4D
 31 57 E6 82 5B 2F 17 4A D4 33 2A FD A9 B8 ED 0A
 87 20 D9 03 B7 78 EE 02 D8 F2 40 D8 3F 30 4F 29
 82 BB 97 72 04 4D 4B 34 FD 05 D4 26 85 92 39 80
 9B F6 59 FB 6D 69 95 38 A3 42 66 EB 76 D9 5B 4E
 F3 C7 18 69 44 F7 E6 D8 13 31 A5 9B CB 7A D2 41
 75 51 55 E4 F8 45 55 FA 7A ED CC 44 FC 75 AB 87
 5D 31 05 74 92 88 08 B7 66 B6 CF B8 32 0B CE DA
 09 38 C9 44 D4 0F FF F3 56 AA 36 F5 E1 52 29 F6
 ED 38 46 64 0B 0C 75 55 47 45 25 86 BB 99 22 16
 A9 4B 6B 3A D7 77 12 49 26 C0 E4 E1 60 4A 1D 3E
 A2 53 0A 14 4B A1 81 4C 44 45 36 F9 6A 75 5E 3B
 FF A2 25 47 62 4A E1 A7 66 72 AF 7B 05 3C 05 61
 F7 0E B1 42 AF F9 38 ED 26 CB E6 73 5F EF C8 27
 CF C2 1D 8D D7 90 62 59 EB 0C 2E 93 B1 F0 6E 30
 E6 52 7C 55 CC F9 5C E3 DF B3 9C 9A 8A B8 09 F8
 90 64 ED D9 60 8C B6 82 9C 70 91 0D 0D F6 B3 A9
 14 D8 A9 4B 33 30 F9 11 D7 57 83 B7 59 AA DB 57
 AA A4 51 4F 86 0B 88 11 22 AD 4D 2D 3B A4 85 E2
 5F 7C BF AD DE E1 8F E7 99 9F C7 78 E9 5D 84 47
 C9 23 80 E9 C3 20 BA 6E 37 80 A7 73 52 87 F1 29
 B6 6B 13 2A 8C BC FC 65 D4 84 54 05 58 E7 3A 7A
 29 03 A3 2A 5E 3C 11 BC AE 74 57 A9 37 B1 EF D3
 B7 4F E0 E8 34 F0 68 91 2A 4B 6F 21 7B 64 05 1D
 9C D8 9A 34 18 5B 80 27 A4 58 9D 6B B3 E8 0A 3A
 79 4C C1 1F 58 FA 8C ED C1 18 18 87 44 58 C8 5E
 FF 4B FD 91 7D 39 CF 06 74 3C 5A 8A F4 F4 28 3C
 2F 8B 6D 1C 8E 4A D8 B2 01 2D 16 EC 64 AB 43 8C
 24 49 A4 A4 5E 50 F9 8F D6 41 11 FE 0D EC FD 56
 B0 47 0A 65 98 E5 CE 03 17 93 F7 4C D8 62 BA 03
 B6 1C 6D 64 CD F3 23 8E CA 1D 9B DE 1C 7B 5C 39
 8B 0E E8 41 93 45 B7 E8 0A C9 10 71 F7 5C 0F E0
 3D 7F 35 64 BB 9B 1F DF DD 35 E5 D5 14 49 89 7B
 7E 3D 9D C3 93 29 76 6F E4 67 D3 30 3C 45 F8 8D
 57 E9 C2 5F 53 8C AA 59 AB 5B 00 F2 F9 67 13 82
 D5 94 0F E8 53 D8 58 EA E5 6E B9 44 76 49 01 21
 27 5A 1A B7 2A EB A0 AC 05 0C 97 69 7B E4 2E EC
 84 DC 76 F1 9F 68 1B D1 F5 27 4E E3 02 A1 D7 C8
 83 3F E3 70 BB E3 58 2B 37 16 FD EF 9A 89 0E 0E
 74 CA 47 4D BE 4D BD DA 95 86 63 CF 78 29 DD 67
 B0 9D 97 70 74 80 09 7F 29 4C C3 61 F7 B1 4D 04
 3C 2A 5A A9 B7 5D 59 88 41 00 70 42 AA 64 CC C2
 F7 3B 83 6D 5F 87 33 4B 48 93 68 9B EA CA 9A 57
 6B 39 FD A7 A9 74 7D 80 48 20 3A 84 2A 4E 03 52
 12 1E C2 73 54 6E 9D 55 1C 47 A2 B5 E0 89 E8 CF
 B7 08 59 A5 FA E2 BF C4 2E C3 11 EF 52 2E 8A D1
 43 9C 78 ED 02 B8 A8 A8 AB 95 4B 59 20 6D 45 BA
 03 24 88 8B 33 DD 23 54 56 B2 00 3D AC 4D BB 71
 59 D3 EC 7D 83 5E 0D 37 A6 A3 77 54 4B 00 3C 72
 D5 0E 9F C1 55 05 94 E6 8B F6 00 01 21 90 CE 84
 78 90 5E 52 59 E5 1D 42 5F FB 56 76 0D AD 8B D5
 1E DA 7F 4F 12 E0 26 EC 29 D4 6F B8 3C 94 E7 C4
 7F D8 04 22 60 4F 0D 6F DD 76 7C 9C 65 95 E1 40
 C1 3C 15 F2 6F 39 D8 3E D6 3A FC 06 96 27 7F 4C
 80 74 5C 73 64 49 E2 2E 08 CB 35 6E 7F 67 1B B2
 D0 ED 10 5B 84 39 84 AD 2F 2E BA 28 C7 5C A3 E0
 66 F9 18 08 54 37 78 9F 2C 12 2A 40 F0 21 25 10
 32 9B 8F EB 67 86 CA C0 8F 9B 89 E5 95 C6 DC E7
 64 6E 69 82 47 A9 20 B9 A3 92 94 C3 80 2B BC 58
 D7 12 C2 40 AB C2 F1 61 EC 4C A4 D4 C5 A8 50 1C
 DC 7F 6E 55 F5 FE D6 FB E7 1B 19 05 93 92 FC C6
 61 6A DF CA 87 AE 69 FC A6 8C BD 87 9C FC BE 76
 45 6E 06 AB 7A 9A 4E 63 90 00 84 E0 47 2E 28 CB
 45 98 4D DA 21 76 14 2B 6E 9F F1 4A 84 A1 FA 9E
 49 E6 7F 92 88 F1 20 07 92 63 FF 41 9B BD 36 FC
 D4 11 1B C1 B8 7B 92 53 68 CF A2 0B 1B 01 E1 84
 EE 2F 2F 3F AF 92 AA 30 E4 DA 35 4C DA DA 26 8C
 94 D8 9E 36 40 3A 0C 60 C6 DF 2D B8 31 AA B1 56
 3F 18 3C 33 F4 AF CF 91 93 4F 60 F2 D1 DB 63 10
 C7 DA 32 EF 94 FB F7 66 83 63 74 12 62 D2 54 F1
 0D 54 B2 63 8C FC 3E 10 D5 D1 87 E4 3B EC 52 23
 B1 40 51 B8 EF 3B 27 2A 86 6C B3 DD AC 48 1C 95
 5F 9B BE 27 E0 67 CF 02 42 26 40 A2 88 B8 0B F1
 A7 46 F9 6F 3D 7E 97 6E 61 34 49 82 9C CE 77 CE
 92 27 06 4A 89 79 C7 A2 6A B0 93 C5 EE D7 D1 54
 B5 EB B6 73 67 96 BC B6 B2 03 2A 5B BC 09 15 05
 A3 35 47 01 C7 F0 63 13 22 3A 51 4D 9E DE 21 4F
 14 4C 35 3A 9E 53 40 C3 86 CD 01 B4 B2 82 CA 3A
 9A 09 0B F9 CB 4D AF 51 B1 8F C3 81 47 39 45 A2
 0C D7 30 BA 16 3C 24 02 D8 B0 48 78 31 9A F0 E2
 79 E7 90 53 75 A6 99 84 97 31 34 B4 2D ED B5 D6
 CE F0 7B 36 78 73 53 8B DC E4 AE F8 B6 A9 E0 CA
 0D 02 7B 6F CF DC 90 65 E9 F5 A8 12 E6 EE A2 4C
 47 1D 6F AE B0 1B DD 0E 34 5F B1 C1 7A AF 1C 19
 E8 57 34 D0 68 55 12 60 25 C7 77 99 C2 E6 BA B8
 8A 65 B9 A6 90 1A 3A 3A AE 1F 48 75 8E D3 9C A3
 43 78 D5 D1 1E A5 23 EF C6 29 01 79 6E E6 A6 04
 23 2D 1C CC FE F8 30 47 C0 8D 8E 53 DB 4B A8 97
 27 D1 81 7F E4 17 0C F3 39 5F 55 FE BD C8 77 5E
 7E CC A0 B8 E2 89 54 E4 EB A0 A3 B9 E8 0A B3 3B
 00 8D 7B 26 51 24 4C 54 A7 71 DD 0D B5 6B 33 1F
 9A 40 D1 86 12 21 4C D4 A5 16 2A EA E6 5F 06 F4
 1C D1 B1 D5 6E 7F 62 EE
* End 516239367 415082731