* LTspice Encrypted File
* 
* This encrypted file has been supplied by a 3rd
* party vendor that does not wish to publicize
* the technology used to implement this library.
* 
* Permission is granted to use this file for
* simulations but not to reverse engineer its
* contents.
* 
* Begin:
 91 C5 8E F0 62 25 93 C6 A2 70 B7 5A 97 1B F7 47
 FF EA CC F9 78 2D 99 2A 89 32 DA BF 59 79 A4 C4
 75 33 24 49 2A 09 67 DE 33 30 63 22 01 98 2D AA
 ED 8B A3 79 F3 25 63 F5 93 6E 2E 80 C1 60 EF 5E
 C5 8B 3A D2 3F 78 EA D9 41 35 5A 00 D1 34 FE 04
 3A DA 8A DC 7A D1 DD DA 9A 2B CC FE 16 87 C7 DA
 6B 88 06 4C 57 03 4D 46 BB 8B 34 6E 05 2E 89 5F
 BC 88 4F C4 09 3F 9F 5C 85 62 46 C4 4F 27 24 D8
 B5 65 89 21 21 88 20 6F 0D 11 92 A6 CA 00 D3 38
 2B 0E AE CA 47 5B 6E CF B5 FF B1 08 C5 90 3A EC
 56 50 2F 81 BD 50 97 98 2E 59 77 0D 94 BD 68 D9
 82 7F 35 AA 54 A3 92 5A AE 4D A4 D3 9D 5C 16 4E
 9B DF F0 4D B4 73 A4 FF 91 44 EE E7 BC BE BF 62
 01 F0 6D 6B A7 C2 B4 0F 94 90 12 7B B7 3C 77 4D
 CB 83 41 07 81 D9 80 D8 81 7B A8 17 FC 4E 27 4F
 1F 95 84 5C D4 E3 CE D5 3A 98 D5 DE CB 7E E0 90
 D2 C5 FA 5F 58 33 8F B6 03 23 5F CB B6 E8 B0 CE
 CD 10 24 D8 E0 0F 9B C3 0A 15 D8 AE 2C BE E5 06
 DF A8 CD CB 68 B7 01 88 08 93 90 A0 E5 C9 F3 4E
 FB 1E A7 AA 5D 78 4F 85 A0 24 1B 7E 53 21 E0 78
 79 77 11 25 9C 18 38 99 EE F3 2C B1 BD 0A 53 ED
 EF C4 FD F1 5C C2 FB 3B 42 40 AC 2F D4 5C 4A FB
 50 AF 42 49 92 B7 56 B1 E9 97 29 4F 60 A0 27 9E
 CE 8E 4E 0B CB 10 58 60 CD 97 55 8D 02 C3 EF AF
 EA 49 CB 94 BC 7F C7 2A 35 06 FB D3 C6 7E AF 10
 EB 47 BF 46 DA 30 2C E6 6B 38 0A 33 D2 0A CC 12
 BD 44 EF 35 1D 59 11 07 53 06 91 27 44 1F 35 92
 AB 60 5A E0 16 BF 15 2C 90 39 21 A4 A6 B6 2F 05
 E4 98 BE 1A 5E 86 B1 BB A3 DE 26 5F CA 23 17 58
 1C 4A 59 D1 3E CB 16 2E BD C3 88 DE D1 76 AC A7
 2B AE 75 8E 27 1C 5B 23 B0 FA E8 17 1C FB 4E 17
 91 7B D2 3F 47 21 FE 8E A7 70 C6 19 5B 95 58 C7
 0D F3 FB 2A DA C1 C5 AD EB 5E 7D 02 62 22 46 1D
 77 CA DC 2C 9C 23 84 09 A4 93 5C BA 59 7A E9 2A
 51 C4 09 90 E0 48 F7 7C 5B 89 D1 35 56 D2 ED 60
 5C 19 CD 32 7B EC CC 88 FD 66 D5 1D 2B DF F5 01
 C1 7C 42 F7 0D C5 65 48 9B 97 43 7F 15 B7 FE A2
 F4 21 FD 4F 74 92 6E 46 1A BC 4C 2A 2D 0E 13 C4
 C6 E2 BF 62 59 94 56 73 74 B2 39 EA 10 B3 F4 AF
 C2 70 14 13 69 6A 48 C7 EB B8 EB 29 9A BD AE 70
 7D 22 52 F6 1E 84 07 9F 29 28 E8 9E F6 FA E8 61
 C8 67 81 57 73 BE FC 46 57 59 CB 45 52 F6 53 A2
 DB BD 93 98 CF 86 71 EB 4D F4 BF 04 08 25 48 2F
 23 69 54 46 E0 98 DA 06 CF BD 0F DC 35 6B 82 A5
 75 65 21 9A 9D 4E 25 44 74 9E AE 90 67 CD 23 5A
 06 7D 0A F8 C2 BA 8C 25 46 0B 5A FC DD FF 35 EC
 2F 59 7D D9 1C BB CA CE 85 1C D5 C6 50 DD D9 F4
 92 7A 2F FB 7B 34 77 72 AA 43 1E 58 84 57 4D E7
 C7 E4 50 B0 6E 6E E8 49 BC 00 09 A6 3B CE 8A E9
 A6 1A B2 DB 4B B2 6B 73 4B 01 D0 86 65 04 98 4F
 57 87 44 32 04 99 D8 9A F5 F8 70 36 45 F3 51 04
 1E 3B BE DB E7 89 8D 23 65 E7 E2 63 E6 48 0D 3E
 1E C2 34 EA 39 59 5B 46 D6 90 20 F9 8D C1 FF BF
 51 CA 2B AA 94 AD 58 E5 C6 69 91 FC F1 E5 64 8B
 B2 04 04 09 C6 F4 8B 91 A7 69 76 A2 C1 13 D0 77
 53 25 79 65 13 64 02 A3 31 86 7F 3F 2A DD 33 6F
 7F 23 17 19 3C 37 78 CB 0A 9C B3 D5 2C 21 8E 78
 10 6B A3 53 D9 E8 DC 1D 57 99 DE 7A 66 FF DE 69
 44 89 E2 1E 29 4C 41 01 5A AF 4D E5 1E 07 02 E8
 46 0D 91 96 44 4E 43 0D 6F 62 8D 83 59 9A 6A A3
 D9 00 75 80 A4 2E F3 B0 EE F5 CE 2B 53 09 6A 2F
 0C 69 43 CE 9D 95 9D C8 95 AE 30 A6 AA 67 66 C2
 5D BE A6 98 9B 64 6D A2 8B 4D D4 82 A6 AA 4F EC
 6F 22 B0 1D 52 33 CA 22 B8 EF EC E6 84 31 E3 C4
 78 99 88 DA 28 EC A8 95 02 6B 10 4A 38 74 D4 66
 E9 F8 49 C8 F3 DB 22 08 E5 A9 BC CB 84 82 F4 B6
 52 55 9E 7C AD FC D1 2F CE 8B 7B AC E2 55 F5 3B
 B2 EB 94 D8 14 96 4C CF E6 B4 F3 C1 A5 13 8C 2E
 C6 3B 59 AD F4 8F 4B 03 9A 09 C1 BE CB 36 E2 85
 56 DF F2 83 E0 CE D1 43 97 D3 5B 24 A0 F2 55 F0
 FA EC A1 77 9E B1 E7 73 9D 09 3E 90 71 BC 42 E8
 9C 47 DF C1 E9 BD 4B 9F FA 19 A6 A5 4E 5C 7A 30
 F9 36 0F 28 B2 BF 65 01 89 38 C7 41 64 F4 FC E9
 4A 32 92 3F 75 28 70 E3 69 5F AE 70 8A 49 3D AF
 95 20 0A 05 6B 1A 22 4E 89 47 3F F8 87 3F 81 76
 F1 AC CB 9A E2 43 82 97 B0 C1 6C B3 DD D3 91 82
 2C 3C 7A 65 53 29 39 82 F8 D6 01 53 E6 6D 36 C9
 31 27 88 30 F3 03 FF 76 24 3C 38 A8 F2 5C FE F2
 5B 84 6E 67 1C AE 58 0E D7 41 C1 02 61 5F FF F0
 96 1A C7 95 35 02 E8 87 A3 85 76 35 99 B5 11 C4
 16 1A 34 FE A3 2F 44 31 08 63 B3 6D 6D 9B AE 6D
 21 7C 67 9B 9A DC 65 88 9B 6F D9 9C 76 6A 2B 88
 B0 F1 B8 9F 2C B2 E0 7E CA 57 B1 BD 8A 00 1F 50
 65 3C 88 49 59 A5 F7 00 83 2F 89 C2 7A C0 F4 9F
 E6 80 31 D9 EA 71 43 E6 90 09 2A 20 69 E4 C8 83
 04 15 6C 50 20 16 EB 60 F1 96 B1 00 33 41 EA 13
 4D FC 95 6E 85 D8 08 F5 16 C0 7C 89 FB BD 0E A9
 10 79 32 32 70 2C 9E 82 3A 9C 1D CA DB DB 1B 66
 31 9F AB 13 31 E1 BF 9F 6F 26 B2 3F 07 24 05 6F
 65 C2 25 AF 50 06 38 BF 26 E1 9E D0 94 98 C5 D1
 2F 85 B1 F2 ED A9 56 D5 42 2C 91 70 38 78 F2 3B
 9C 8A 92 63 61 65 0F C2 F6 C5 AF 01 C6 D5 2B 3B
 9B E1 81 9C 3C D4 98 96 85 58 7F C2 D6 BD A8 1E
 15 86 20 E1 29 28 76 12 AB A3 68 2A F0 F7 07 C6
 C4 B6 0B E0 70 49 9D 52 0C 16 EE 76 AE AF 98 98
 6A 83 E1 7C A5 C7 F7 F0 D8 B4 37 24 5A DC 5F C4
 85 B3 24 AF E4 09 50 4A C2 AE A8 58 02 D2 F9 7A
 C8 FD 0E 09 FD 27 62 63 6D AE CB 87 27 25 CE AB
 20 AB 4E 50 34 F1 EC 3A 45 EF 4B C7 E0 6B 71 C9
 F8 E7 CD F4 73 D3 6C B3 B1 98 64 3D 0B FA 06 BC
 9E C9 D7 0D D2 4F 8E F5 A1 EC 74 A2 23 E8 DC 33
 04 F1 C6 17 C1 42 8C 9D BA EA 9A B2 8D C9 79 CF
 96 78 C3 4F 22 77 1A 5A 39 54 B6 B8 3F A0 82 BE
 77 95 DE F7 5A FE 60 21 6B 22 CA 68 24 E5 3E DD
 7E 97 9A FD FB 40 DC 95 9D 83 AC 34 B0 7A 89 67
 E0 60 7C E7 00 0C CD 31 86 4F 9D 5A AE 1A F5 CA
 75 CC EE 1D CB 32 A2 AD 2C 84 69 94 76 5F 1D 99
 FC 59 A9 65 03 9C AB 4A 07 1D A9 45 F4 61 B2 F3
 D7 6A 1F 4F DF ED DC 7E 27 31 12 3C 19 84 1E 90
 36 1D F8 89 51 87 27 C0 B0 8E 7E 06 B4 50 D7 E8
 2A C0 F9 25 94 4D 65 6F 6F F2 1D 7A 9E D1 92 D0
 1E 24 74 A4 39 B1 C3 48 F5 BD 94 A2 80 B7 9B 08
 51 AE DD 63 94 B1 16 E2 6A 08 6B 86 61 5D B4 2E
 DE 98 31 D3 A3 90 69 39 5E C6 A9 0A 7C DE 23 14
 E3 A4 BE D2 62 34 E5 29 E1 FB 83 EE B6 0C 11 61
 1B B2 52 E0 D2 44 27 FD 8A 7B 9A 34 20 4F CE C7
 7D 7B E5 A6 21 EA D5 81 F5 65 4A 91 F6 4E 34 C2
 3A 1E 37 87 1B 35 10 47 24 CD 7A 8D 60 D8 19 F4
 54 4B 3B D8 F6 70 57 54 3A B3 65 AB E2 D7 80 80
 75 49 92 7A 1B C6 7B 35 F9 D9 87 CC CB 41 15 31
 43 86 9E B3 7C D5 3C D3 40 A7 C0 92 B9 03 2B 05
 2E DC 2C 32 0E A4 28 69 57 B2 F8 43 AB B1 3D 28
 24 6F 3F 99 51 A9 14 B9 9C 2E 51 CA A6 D4 40 1A
 7A 5A 8D 2B 6E 1D E9 CC EE D7 55 FA 81 1F D8 76
 1E 17 D3 AF 3D F5 DD 15 A8 0C 06 FC E5 EE 57 D9
 C1 93 0E 40 BB D2 FA 7D 7B 6F D8 EA 3E 50 9D 01
 D2 7D 79 A5 39 70 4B 7B BE 61 47 3A 7B 2C 85 E2
 B1 E8 20 07 D1 EF C4 DB 80 41 E0 85 42 58 0C EE
 25 93 5F A9 CE 12 52 C2 0A C2 F5 87 F1 5D 34 E8
 3D 85 AD 8C 03 1F 22 7E B4 9B AB 05 BD 06 B3 2C
 8A DC 78 42 B5 03 A4 FD 9D AD 93 DB CF 24 BD 44
 F5 3C 38 31 E5 A2 C4 10 35 39 6E B1 90 85 C3 53
 BC 1E B7 DE 9B E1 D7 F7 BE FD 38 E0 89 67 72 33
 47 81 46 FA 09 EE 59 46 40 F6 26 47 86 0F 82 69
 81 E6 FE FB 16 D1 3F BC 9F 33 AC A6 98 24 19 FA
 98 08 0A E9 F5 2E 92 8F 48 18 8B F9 D9 01 F7 91
 9E 2F 4F 1E 37 90 61 FC 43 F6 CE C1 9E 06 9E 3C
 D3 02 62 F0 DE 1A 01 9E 1B A1 9B D3 62 C5 EC F0
 DA 22 98 B8 96 DF B9 56 80 8E 24 57 50 35 24 7E
 C6 AA 92 99 B1 D6 D8 B4 C5 10 31 78 2A CD B0 FF
 F4 E4 72 8B 85 DE 4C B0 36 EB 8D 2B FA 05 6A 8B
 05 C5 60 37 7A B0 2A D6 78 91 E1 6D D9 E8 56 52
 7C 3E B0 72 6E 9C 5A B9 26 37 41 B7 A4 C5 E1 19
 08 7B 2F 44 55 50 C9 53 55 2B 05 71 E5 3A 1F 10
 DF F7 45 BD CF 72 B2 B0 1C 16 E4 BD 35 26 60 F1
 55 97 2D 6F B1 C2 98 C3 9E EA 64 4E 6A CC C2 6F
 3A 86 8C 83 65 38 EB 79 BE 8F F3 1E E7 08 51 23
 2A 14 FF 3D F6 BE 17 C0 D1 CF FB CE 96 0E 4E 1D
 6A D7 EC 07 BD 2D A9 E6 DC 05 88 E4 21 23 E5 E7
 1B 98 6D C3 3E 5C 29 75 9A 04 AB 7F 59 15 48 47
 19 AE F4 5B 22 D3 86 36 79 82 32 18 C9 92 9E 44
 2C CE 63 4E 80 1B D4 DD 71 1F 1D B3 32 5E E2 69
 48 08 97 18 BE 62 E5 D4 8A 26 FF FA 6A D7 8C 33
 CC DF 15 EA 5B 1D 67 D8 0A 3A 64 67 4B EE BF 87
 0D 0D F5 C4 DE 74 F2 10 71 B0 DE 75 F1 A7 FA 07
 5F 45 E0 24 CD 05 03 8F 08 DE A2 95 02 D6 68 F1
 D0 C8 0E D4 E7 E2 D6 09 41 F5 E9 A0 F7 3E 3D BD
 46 04 CE A4 CF E0 10 53 6E 9C 72 DA 1D 66 3F 96
 F0 8C 87 BB 7D B6 7F 3E F1 18 42 7E 69 FC 48 F9
 29 94 21 3B 89 56 3F F5 0C 3E 5C 07 9C 85 D9 65
 49 6F 31 70 83 4E F8 90 CC 8B CE 79 D7 0B 73 53
 92 4B 2F AD 8B A0 87 62 0B A1 EC 7B 48 70 9C 10
 37 00 F3 3D 65 4E AF 53 3E 39 9F BE 38 3E 61 43
 3F 39 9C DA 71 68 6D 7A 67 D1 A0 4C 80 EC 79 C8
 B6 57 5C B5 01 AC E9 CD 20 7A 26 39 3F 4B 9B CB
 87 B4 DC 85 84 33 B8 72 01 38 63 BC 8A EE 26 60
 08 3A 38 FD 3B 83 B4 DC 41 35 7A 3A 57 FC A7 E5
 AC 00 E1 18 54 99 CE 05 51 BC 79 6B 85 F8 FC 80
 69 C6 18 80 63 13 28 4B FD 5A F7 FC C0 48 23 B5
 F5 8B 4D 66 34 FD 3B EC 65 5F 80 A6 B6 41 49 81
 A9 BE 90 D6 5C C5 79 C4 02 70 CD 45 24 D8 32 FF
 39 46 B5 F5 E7 52 18 78 71 1C E1 A1 34 C0 A9 03
 DB FF 93 84 84 9F BC E9 4F 34 55 41 C2 D2 78 9F
* End 4280952904 2380714137