* LTspice Encrypted File
* 
* This encrypted file has been supplied by a 3rd
* party vendor that does not wish to publicize
* the technology used to implement this library.
* 
* Permission is granted to use this file for
* simulations but not to reverse engineer its
* contents.
* 
* Begin:
 34 23 89 A9 29 79 F4 6A 60 61 7E 6A F3 DD E5 B8
 3F 70 0F B0 AC 76 EE 1C 25 1A F0 0F 86 11 03 AA
 09 B1 F0 DE 06 48 6B 18 B6 55 1A 93 C9 96 35 F7
 FD F1 93 09 41 18 C4 3A 00 06 5D 2F AA C0 D2 5D
 7A DF FC 05 72 C8 C8 BF 4A 61 8A 43 47 77 88 60
 83 D0 AC F8 22 54 9B A7 D3 BF 5C 23 D2 6C 39 93
 03 37 52 86 E4 72 A9 0A 76 5A E4 9A ED 9C AD A6
 01 B0 FC 9E 79 0F E2 D8 D9 5A C1 E0 C3 1B 23 A1
 94 D4 8C A7 90 0C 51 98 6A A3 99 94 61 EA 49 DD
 D6 FC 74 9B A9 EB 3A DA 03 CF 6C 05 F5 4E 32 C4
 EE B4 B1 91 4F 54 0C 3D DA B9 F4 3F 98 90 24 FD
 A6 6A 78 25 F0 16 DA 33 15 C0 96 FB 0A DC B4 59
 3E 0D 4A 31 BD 2F C5 4B BB 25 1C 3A 3F 99 84 7D
 B2 50 16 3B 59 21 2F 67 90 03 D2 74 4D 61 24 A6
 22 5F 5E E7 37 2D 78 D0 F0 79 C8 98 9E 08 79 6B
 46 71 CC D2 96 E5 08 93 43 18 15 A0 80 1D 00 E6
 CD CD 5A 6A 74 34 57 D4 C8 E1 88 9C B8 1B 2D 52
 51 57 DB 86 82 38 20 E2 0A C2 37 52 D6 B4 38 EA
 EA 65 BA 1D 1E 7B 07 A7 91 6E 46 D8 D1 30 A6 6B
 06 8F 50 B9 4D 55 A8 85 6A 73 DF 78 E6 8E 2B FE
 60 17 8B 7A B3 D3 ED 3B D4 16 94 17 6E 15 9C FC
 9E AD 2E B2 6A 55 6A 11 EC 0F F9 26 7D 78 8A 7F
 3B C1 AB 98 96 C1 FE BB FB 15 13 48 4D C9 B8 09
 74 19 FD 2E 2C D6 88 90 53 F4 81 1A 7C 20 A8 0D
 8B 45 1E 07 0A D2 63 6B C4 75 62 5D 49 30 F7 EB
 C8 5E 88 25 B0 D8 C6 31 2C D7 4E AF 53 50 65 22
 AF 92 B2 4E DB E3 A4 00 7D 1F 5E 9B 7B 13 A5 14
 16 43 F9 E0 50 57 3E 3E 69 73 BE 32 DA 16 D6 25
 57 5F 31 87 70 57 7C DF FA 7A 9E E1 92 C4 5D 53
 CA 31 F4 20 40 F5 CF D0 A6 E6 E1 8B 19 5F 7A 3D
 7A 05 D2 67 12 F4 62 CF 47 3A BB 10 EE B9 16 93
 1C DF EF 8F EE 9A 9F 74 B0 EB D0 58 A9 7C 39 7D
 D6 A2 5B FC FD 49 37 8E F6 EC 13 3F 8A 3F BD 2C
 51 B1 3B B8 08 9E 31 EF C4 72 46 E2 4F 3F 1C D4
 14 D0 7A E2 1D 66 EA 4F 88 48 E7 50 05 12 0D 94
 5B 88 6B 67 84 FA 04 0B 56 8C FA D5 DC A1 04 2D
 5E A3 08 BA 65 FD 50 51 26 44 40 D4 28 B3 BF 48
 5E 14 6D 6F EF C6 42 72 EC 03 D7 1A D4 17 D4 B0
 7E BA CD 3C A4 22 70 CB 87 18 BF 82 0C D0 CC 26
 DC 03 BB AA 4A E6 88 23 C9 09 1B 96 29 8D 42 89
 5F E8 6A C5 58 0F 15 39 37 CD 42 D6 DC D2 1D 31
 26 CF D4 3E 39 4A E0 9C 7D 98 96 FA 13 2A 3B 0F
 0D EF 3E 0B BF 28 C5 99 28 9F E0 AF 37 10 63 8B
 E8 A2 34 04 08 B2 54 BE D3 C2 4F EA 86 D1 8A 1F
 57 48 D9 3D 3A C6 53 DC 05 9B B7 E6 A4 AB E1 43
 83 BC 75 FB FB 70 1E 6A 31 7F EB 7F BF 53 D3 E3
 61 91 3A 2D D7 66 A4 2C AD 4D CD D7 F3 25 22 D7
 70 99 1B 46 E6 7E AD 34 0A 8E 26 28 62 70 70 00
 5E A6 72 BF C8 DB 1E A0 E6 C2 25 12 6D 61 DC 5F
 68 0C 00 C7 F3 9C 57 A4 DE C0 D3 D4 1A C9 0D 5A
 A9 DA 59 0A D0 4C B8 10 62 3A E4 98 5B 08 E8 6C
 E9 CF 7F 3D EC 5D 64 0C 7A 34 6C 3F 09 3C C4 A7
 FA 98 98 A9 1D 63 76 98 24 B2 A9 4D 97 78 DA 46
 17 C5 E1 AA 86 F6 68 AB 67 2E 51 B6 62 08 07 92
 35 A1 05 43 4E D2 D5 89 73 43 F8 46 EF 8F 93 FB
 66 AA AC 8E 6F 77 E6 1E EE 59 4C 4D A2 2C F5 F4
 0B 63 44 34 F1 89 84 CA 2A 49 F4 6B 53 64 2E BA
 A2 9D 33 65 F1 A5 8A 53 EF 4D 9C BC 03 28 4D 0F
 6B 9C B8 17 E1 64 01 07 E9 19 D9 B1 FA D1 6E 24
 3C 02 F7 E2 95 AE 15 18 D4 1F 67 18 54 66 3E 2D
 0F BC AA C4 2C 4D 59 EC 74 56 B9 1C 5D 94 E4 AE
 13 9B 0C 25 7B 1E 41 C7 F3 DF 50 1C F1 26 FC 2C
 40 3F 77 AF 09 9E A5 03 CF 63 F0 DB 79 65 49 68
 41 69 4E 7D D3 88 2D 11 E1 FD 44 E4 E5 90 11 50
 70 8D EF 6F 98 94 0E D8 27 1B 25 18 64 77 0E CD
 26 5A 3B E5 C0 47 83 D9 AE 3F 5B 76 E9 87 A0 92
 41 68 85 55 D9 C7 7A 72 62 91 04 13 7A 41 5B AA
 2B BB A1 FD E3 24 37 61 26 11 7C F6 FA 7B 4B 7D
 32 00 6B 8D 72 36 59 19 3B 89 CD F3 8E 37 EE AF
 14 2B C1 CD 3E 78 D9 EC E9 03 18 74 AD 15 37 71
 CB B8 C1 90 5F E0 C8 1F 69 B8 98 09 14 0E C6 7D
 76 61 01 80 C7 B3 84 A5 07 5A 59 1F 93 ED 3B 7B
 01 68 AA 93 E7 93 CE A9 4E D5 CE 59 4E 28 DB 7F
 9C 8A CC CA 74 58 68 C4 62 F0 07 4F 67 FE FB A6
 45 D5 D4 F9 73 D9 69 FF 06 52 07 B3 C5 0B 3F AD
 13 7C 3F 01 85 09 88 4E D4 C1 C5 41 B2 A4 40 39
 00 39 18 76 8F 08 71 DA 4B 3B 5C 65 06 45 32 68
 67 83 70 75 0A 41 80 0F 83 C7 99 18 E3 9F 17 15
 B5 2A 06 4B AE 69 04 4F A7 7E 05 C5 2D 53 93 D8
 8A B5 80 F5 58 AB BA 2D 2D 8C A6 00 C9 8E B6 94
 E7 D2 CA B0 9D 85 0C DD 2E 21 7D C9 8D 9F 9C F6
 2B 44 33 D9 D2 68 3A 99 D2 D8 37 39 2A 10 FD 28
 39 0B E2 34 EB B2 40 2D 44 2F 83 E2 59 B2 05 36
 BF C4 6E 24 19 FF 5A 85 9C 50 BF CB C1 49 A0 53
 0A 96 B6 C3 BF BA E7 F4 38 93 93 E8 32 95 0C D3
 00 4C 04 CA 3A 3B DB 4E 47 69 D2 8C 26 6B DF B8
 EB 2E 33 CA D6 D6 C2 A1 F2 6C A8 BA 57 47 48 88
 5F 6A 52 D9 A2 21 A7 7D D5 D0 B9 26 3E DA 41 69
 E4 FB 74 AE 14 6F BE C0 30 62 06 2F 00 80 36 03
 94 48 68 E2 C5 03 92 2F 1C 7F 57 A9 32 20 8D FE
 59 C8 C6 82 0E F3 BC BE E3 FE AC 22 AA 9C E9 B9
 EF FC 59 56 6B 35 7A 22 0B EA 10 8D 05 E1 99 89
 25 A8 86 83 8E BC 23 16 97 DC 8E 6A D6 DB 14 F2
 63 8F D4 2E 19 69 5E 83 DB 37 DE A0 1A C7 10 F2
 F0 C8 2D E9 99 FC 51 F9 77 DC FB A1 7C A2 F4 81
 E1 31 2C 76 C9 E3 99 A8 17 0F 2E 53 37 98 E8 1E
 42 B2 90 08 CA C2 6D 41 7C E8 61 69 2E 4B A1 C5
 72 5D E6 FE 72 9D 83 33 F3 4E 10 0A 3B 8E 10 70
 7C 4F 48 3D E9 CD 7F 12 8F 0F 80 82 AE B0 2F DA
 26 45 3B D3 9A 37 C4 FD 23 4F C0 1A E8 D4 4B 36
 83 DD C6 D6 B0 57 8A 90 AB E7 1A 59 C8 5C 19 24
 0D D5 56 F6 9F DC C3 BA 97 D0 F6 AA 34 58 AE 94
 27 A3 E3 D4 AB BB 9E BE 1D F7 30 82 E9 FC A3 3A
 24 C2 5D C3 3D DB 45 52 D0 5A 09 C0 0E 52 EF 90
 39 8B 5F C6 F8 3C B9 DD D8 88 43 3D 5F 6E 4B 71
 55 C3 59 1D 27 D3 B2 B8 32 FB 7E 56 1F FB 63 49
 AD 93 35 29 BF 81 06 10 23 E0 5A 4D F8 33 6C 62
 2F A1 9B 68 BC 88 23 35 A4 BF 80 A1 35 EF 07 78
 4B B9 CF 87 2C E5 64 D1 68 27 50 11 89 00 2D D9
 05 36 C1 A6 2E DB 87 B6 1E 90 07 4C A0 20 2F EF
 AB BA 33 D6 BE 2E DA FE FD 05 63 B2 D1 20 01 49
 07 95 CD 72 21 23 97 0B AD 3F C1 BC 4C 6A F0 DF
 EC FE E0 FC 96 29 AB DF 5D 57 06 78 E7 AF EC BB
 28 1A F3 43 73 4D 93 7A 35 D6 77 E6 F6 8E 1C 9C
 F2 81 9D 20 5E 4A 48 19 21 65 18 78 CA 96 1B 80
 25 54 D8 68 D7 FB A3 2E 78 BE 81 4A 1E 32 CB 93
 8E 10 C4 41 B0 4E A0 2A D0 01 B6 60 54 BD 76 36
 EE C0 BB 03 5E 84 B3 46 9A 76 85 30 32 AE C0 05
 F4 C8 42 F6 92 B5 E2 B6 EF DB 20 B7 A8 79 A0 24
 42 FC 0A 9E 9D C8 85 4F 2F 38 91 10 08 C7 F8 AE
 EE EB 1C E4 E3 92 54 DA D4 B0 D8 DD B5 CF 7F 78
 E9 81 E2 A4 C0 7C 38 62 E7 3D 1D 1F 94 0F FF FA
 6F B6 43 9D E4 F1 BB A8 84 C2 E4 15 72 9A 08 70
 97 1E 30 45 A7 93 A3 1D EB 6F 19 DA FC 6B F3 4B
 25 CF 6D DF 34 52 00 DE 17 A6 D0 BE CB 22 F0 CE
 44 9A 02 EC 63 AC 91 A8 5A 42 5F 6A 8B 53 B1 18
 4B F0 B6 42 F4 40 16 84 47 FC 38 4D 60 0F CA B9
 15 CA 3D B8 08 8C DE E5 F1 55 37 E0 B1 9A E6 E8
 0D 2F 3B 8C 35 89 1E FA E5 30 97 5C C4 A6 3B 6E
 64 65 43 78 C3 8A D8 5E EA 2C 20 1A 23 AF E0 0A
 3E 51 60 46 F2 4C 24 A8 16 25 41 25 96 8B D6 19
 C9 57 11 D5 1E 68 B6 DA 18 F7 A7 66 90 33 8D 9F
 7F 2D 06 BD E6 5F D2 BA 1F D8 F8 3C FB D8 0B 9A
 84 7E DB E5 B1 3F 16 77 8D 94 E6 A1 77 5C 6C 7E
 7B D4 89 63 48 47 29 51 03 EF D7 30 2E FE 9B E3
 5F 8D DD A1 71 07 E0 4F 57 B7 FE CF 48 2E BD DA
 19 9C 60 73 7D 86 2B 0D 21 AE A7 13 0D D4 28 15
 A2 49 17 AB 40 6A DC 3A CA 1A 3C D0 D7 62 28 C9
 1C 81 9D 04 9C 54 DB E2 7D F5 8B B3 A9 F6 E7 84
 E7 58 87 4A EE E9 C9 77 2F 02 12 21 07 4A C5 37
 7B 01 94 3B FC 98 98 EF 7D 01 67 C1 4B 12 C6 C2
 91 30 0A 47 A5 46 D8 7B C4 A9 FF 39 D7 94 62 36
 33 2C 18 5F 01 38 61 AF 6B 51 8A A0 92 49 9E A5
 CD 52 7F B0 4C FE 8B 11 81 DE FD 8A E0 77 51 9E
 53 FB AE 34 A7 F2 1C 97 58 53 E0 11 60 E7 9B EE
 3B FE 58 D8 CF 75 31 71 D0 EC 86 8D 5E 69 24 54
 64 DB 5B 72 20 56 1A 6C 01 2D 0C 3C FF 1F 02 54
 6E 4E A6 02 27 6E C3 DE B4 D7 9D A1 F8 F2 C7 A4
 CE 97 2F 8B C2 4A B5 62 25 D5 D7 1A 75 2F C8 A5
 F3 94 7D 33 1F 68 26 30 E0 90 9A DB 1D AC 70 B0
 E2 59 3F C2 AE 39 D2 AC AA AE 06 53 E5 BE AB 62
 38 CF 8B 52 4D 8E 7B E8 85 A0 B2 72 52 27 6D 2D
 C6 05 31 68 79 91 D1 56 3B 89 90 BC 95 A2 7F EB
 6B B7 34 A8 07 E1 B2 50 4C F4 E0 8D F3 44 63 9B
 E4 F7 B7 DB 1C C3 D6 24 11 66 A2 6B 1B 7C 98 2D
 44 DF 3E 77 89 FF 34 8C 1A E0 25 60 10 48 E6 84
 8C 4E 69 12 5F D3 99 F5 79 17 E2 83 93 78 17 D9
 A2 CA 7B 46 E1 32 B3 A7 5F CB FC 83 24 12 C3 5A
 22 91 77 A4 BD 42 0A 84 1D BF 1E 00 AE 92 3F DC
 32 F1 3A 09 6B 09 6D 8F F5 92 98 42 AA FA 8A C7
 F1 A0 99 3F 1E 99 3F CB 4B 8D 4B DB 2A D6 F4 8D
 74 4E 8B 1B 10 C1 A2 BA 83 F9 4A 14 EC FC DA FD
 45 7D 37 07 60 4E 24 AA D3 85 4F DE 91 3D 82 CF
 76 67 4C 44 82 1C 25 8C F6 AF 24 0C E6 1B A4 94
 ED 59 2B 59 15 A0 63 A8 D9 B0 7C BA 31 B3 DA DF
 88 A7 4D 12 B7 7B 5B D5 51 A8 12 98 58 23 B2 BB
 00 3D B6 48 41 46 B6 D0 0F B6 2D 93 79 11 96 0B
 B5 61 E8 BA BD D7 A5 E6 D4 44 C9 97 98 7C 3B 67
 C4 12 7D 45 99 A3 40 DF 3A FD 8E 57 90 A9 68 E9
 47 73 AB AC 7A F9 CF C8 0D 72 BB 77 B3 17 85 A3
 A5 8C 3E 3C 47 E9 43 DA B7 E4 94 A1 5C F8 E2 5B
 D9 2D EE 2D C0 1D 94 D8 95 18 14 DB 49 0A 62 A5
 C9 DA B9 D0 BD 94 C7 28
* End 4185927453 667510257