* LTspice Encrypted File
* 
* This encrypted file has been supplied by a 3rd
* party vendor that does not wish to publicize
* the technology used to implement this library.
* 
* Permission is granted to use this file for
* simulations but not to reverse engineer its
* contents.
* 
* Begin:
 B2 9A 4C AF 6C 4B 97 D1 55 D7 B9 1E 27 2F 73 11
 D7 F6 C2 46 FF D3 CE 42 EB 80 0F DE F5 47 D7 E6
 0B 04 D9 F5 6A B0 AB 32 33 FD B6 0B E0 2D 9C 38
 8A 30 F6 FE CA 77 E1 F2 09 F2 87 FE F0 22 F7 70
 1E 70 F9 A3 E7 62 1D AD C1 AF 31 52 EF 89 E0 54
 52 1D 86 DE CF 62 78 82 FD 6A 4F 11 8D 92 AE FD
 85 5F E9 AD 55 DF D2 A6 2E C7 05 80 32 01 C6 43
 49 27 F8 D0 7A FB D5 6F E6 05 91 9A 43 9C 30 AF
 51 B9 4C 26 AE 77 9A 08 14 36 7A 6B 55 35 66 87
 B6 8A 98 2F 10 3B 85 69 CE D9 E9 44 0B 93 70 E7
 89 B8 FC A7 2E D4 E1 FB 8F 36 CC F4 16 82 C8 1A
 26 04 D2 B7 45 BA 2B DA D0 F9 6B 42 A0 88 99 D8
 5E 2C FE DE 77 9A 19 47 21 4D 16 2D E8 F7 A2 C5
 DF F8 AA AC 1D A8 D3 F6 86 4F 9B 38 EE BB 7F 90
 8C 1D B2 7E 98 0D A8 A1 F3 32 C9 5F 54 FD 3E 2A
 44 C6 E8 41 FA 68 60 0B DB D0 3B 3D 59 99 51 34
 B0 D0 EE 02 D7 19 4D FE 7C 7D CA AB B9 06 4B 9A
 E6 51 14 1F AB 2F 9D 2E FC BB 97 BA 43 AD B2 DB
 CE B8 14 B5 63 64 74 02 ED EA 52 14 5B 67 3B 1C
 1D 70 9F EF 33 48 F3 94 0A 8C 60 69 90 58 12 66
 06 59 83 DA 69 38 3E 49 81 E8 CD E5 2B DE 0C 32
 F1 08 01 CC 3F EA F2 8C 14 A2 31 E3 54 66 4D CB
 2B 69 F8 68 EB 8B 6A 8D 39 F2 81 6F 7A 3A CE 50
 0C 4A 1F FF C5 82 2D 83 DA 2C B2 56 7C 64 32 71
 10 18 3F 81 2A 55 27 21 8B DE 73 07 70 98 A3 AD
 98 A1 81 6C 57 75 65 C6 60 BA 1B 88 79 F1 6A BE
 21 CE C6 A0 78 B3 22 E0 45 FB 88 F5 0D CF 84 A2
 E1 40 05 7D 54 72 D5 56 2D 2C C0 73 AB 0D 62 5B
 37 A6 A1 AB 3F 37 93 BC A0 4E ED 7F BD 1B FB BC
 24 B8 3A 80 3C 2D 9A C5 F2 C3 EB 01 C4 0D 46 76
 B2 5A 10 E7 BC 31 84 12 59 8E CF F5 9D C5 46 4B
 C2 33 5E CD DA 46 D6 1A 79 C4 4A 02 37 89 01 05
 EB 49 17 C8 BB C6 D7 D7 04 41 17 C6 B9 2E 67 B2
 0A DD 48 46 32 6D 89 92 F0 A8 7C 26 57 10 A2 D0
 7A 47 B7 23 FD BC C4 61 02 70 A2 1C CB AF 2A 5C
 FB B8 3A DB 31 9B F0 E8 71 B1 8F 74 BA 29 CC E2
 A8 48 01 0A C6 4F DE 9C 48 67 EC BA A8 06 53 92
 EB 95 0D 88 B7 F7 6A 91 45 81 CF DF 90 E6 45 4D
 6D A9 46 0B FE 4C 75 9A 2B C9 DD 39 F4 E5 C5 A0
 1C 54 F4 02 CB C8 43 EF FE A4 D0 E3 0B DC 0C 7A
 38 A1 04 D1 CF 36 06 8C 84 80 46 36 F8 02 6D AD
 C2 11 6A 6D CF 5E F4 D4 CE FA 62 85 53 C5 03 B8
 2E 69 D1 AE 9F F9 97 C8 8F 9D 9D B3 71 D4 40 B0
 4D D7 98 29 75 3D AB 1B 69 9D 1B AD 2B A9 A4 AE
 12 C1 0F 0C BD 31 8C 83 03 84 9B CB 91 45 BC BE
 78 76 A7 B2 8B 75 1B 46 C4 38 CE 96 0B E5 0E 46
 75 AA F7 8E 90 1A E9 FC 44 9F D9 06 54 FA AE 19
 31 C6 91 5D A8 76 90 09 0F 9C F6 82 69 F4 28 A5
 0D F6 4C 1D 6B EE 40 96 87 DC 72 D5 EC 96 6F 78
 67 80 92 1F 83 88 8A 8B 7E 39 10 6B 88 01 F2 18
 0C AD 92 A4 82 10 F1 FC 0D C7 E1 5A 2D B3 EF 33
 58 E4 0D 86 3D 85 EB 09 D4 BB A5 1D F2 BE ED 37
 1F 02 43 34 A3 D6 5D 35 D7 AA 91 56 27 1F A4 96
 19 85 F1 FD 85 1E BA A9 F5 B4 10 B4 F7 4F 2E AB
 23 CA B8 24 27 02 FB 3D AD 1D C3 44 39 EC 47 0D
 08 4B 38 E3 BB 60 A5 6B C7 8B DF 84 19 C2 79 68
 30 14 25 4F 92 74 09 94 29 15 34 58 9F 4C 89 A1
 DC 32 F4 FF C4 AF 01 D9 2F 44 83 D2 D4 4C D2 31
 A3 54 4F F3 D0 E7 41 AF 75 C3 1D 0E 18 C0 E8 F7
 90 6A 56 D8 97 9B 31 7D 3A BD 10 4D AE F2 6A 0D
 D1 11 2D A3 70 CD 7C 3C 0B F6 DD 81 41 51 FC 3F
 9F 3C 9A 69 02 6B EB 29 41 12 BB 36 B3 70 DB 94
 B4 49 DC 85 05 BC AB F8 02 DF D4 54 F4 3A 9A 29
 AB 59 DE 3E AD D1 13 F4 15 FA 51 6D C4 2C 9D E1
 D3 BB 85 D6 01 63 0D D5 1E B4 06 0B A6 DB EC D5
 73 12 12 04 52 41 41 3B AE 27 E2 91 DC C7 FF EB
 D7 E8 04 0C 5A 30 5B 2C A1 44 2B 2D 0F B4 38 3C
 B0 7D 60 D5 2B C1 AA E8 85 C5 BB 2B 61 3E D7 81
 44 40 EF 15 4D A4 50 6A 41 4D 2F B2 3D 99 84 9E
 70 13 00 B5 85 EE E0 69 3A BB 28 81 67 C8 29 92
 28 A7 19 72 66 19 8C C2 5B DF F3 94 BF 59 A5 07
 B8 D9 30 B1 92 09 B6 46 2E 4A E6 27 FC 80 E1 06
 2B E8 3B 7A 4F 93 20 DF E8 58 CD 59 00 90 D8 98
 93 FA 33 AC 22 0F D3 6F 00 10 B3 D0 5C 46 52 65
 13 C2 E4 06 C4 C6 EB 4D DB 39 A4 22 F6 49 24 2F
 6D CA DE 1E BD FF 20 43 28 3F 35 8B 71 EB 87 20
 74 6C 65 57 FB 5A 8B 03 FD 02 F8 51 D3 B1 13 73
 C9 4A A8 19 98 EE C5 A0 16 C6 88 0E B4 F9 A2 DE
 5A 87 C0 73 CC 21 AE B2 1D D8 BC E7 B3 5A 66 9C
 BA EF 20 C5 A1 60 94 EF 90 6F A4 14 46 A3 16 95
 56 13 D0 2D 23 51 94 29 4C 0C DE B3 3C ED 9D 11
 A8 98 DB C0 A8 FD 6E 54 4F 04 34 5F 7C 69 AA BB
 0D F2 C4 D1 BD C2 A6 11 A3 D4 4F FF F4 A4 13 AE
 DD BC D7 E4 14 67 EB A8 EA AC 79 7C CD 8C C8 A2
 45 CD F0 E5 18 89 12 5D 8D B2 C7 2C AD 06 6B AC
 A4 3B 3C 03 D1 8B 84 A6 8A C9 3A 88 BC 60 7C A5
 EA 10 A3 8A AA C9 EC 1A D5 42 AB C0 A6 53 F8 29
 E9 14 D5 C7 A8 F2 22 B7 80 21 16 D5 7C EF 03 A4
 F1 AD 6E 49 BD B1 41 8F 90 24 9B 59 22 05 F8 8E
 E6 0B 46 61 26 B6 08 42 86 42 13 32 98 44 8E E1
 4E 8B DF 4C F1 F6 62 11 BB 42 D4 01 A0 21 14 02
 6F DF 3C F6 8F C2 DC 3B 5E 5D 23 68 E4 C3 82 D2
 03 BA DD 24 04 23 54 01 BC D1 1B 39 47 D0 64 9F
 EC CA 9E AC 71 CF 20 97 17 B3 D8 57 5D AB D7 D7
 12 C8 AA AD B8 D7 4B DC E3 FE 45 7A 62 02 A1 2E
 C8 20 E1 B7 A3 89 D7 B0 62 24 9B 92 2B AC D0 E1
 DE 04 5C 56 E8 41 C7 8F 45 06 4F 0E 5C 40 99 20
 5E BB 60 6F 6D 65 2E 5F 75 E4 5E 99 66 14 A8 95
 EA D1 27 F1 4B 53 39 5B B1 F8 A5 10 5F 22 ED 6E
 B5 AA D6 B9 EB C9 18 33 A5 6E 49 53 AE C2 DF 27
 CD 1A D5 E0 12 6C 12 7C A3 A7 C9 6B 0D 89 5F 47
 89 B5 A3 C1 14 F8 79 E4 E0 83 E7 E3 00 BF BC F0
 14 EF B3 E5 01 38 52 4D 10 1A AC B3 61 F1 A2 DF
 3C 22 72 6E 17 86 E4 6D 98 DD 36 30 F1 58 30 C1
 B3 8A 8E E8 E1 B3 51 C4 E0 7A D6 04 87 4A 2F 93
 0C E2 D3 C4 13 93 04 0A B1 D9 E2 B8 59 AE BC B5
 25 9B 61 D3 24 9D FF 3B FF C0 48 6B C1 AD 63 C8
 D3 4A DA 47 82 28 16 C9 B2 62 63 A7 7D 86 F7 31
 5D 22 7C 77 6A FC 49 03 92 A9 AE 21 80 4A B7 DE
 C5 FC AF 50 64 BE 52 2E C7 3D 2B 47 EB E5 97 F7
 73 EB 1B E3 74 59 5D C8 12 1F 44 7E 36 0D 6A 97
 1D 5A 81 F4 D3 A7 6C 60 2D AC 95 32 98 20 8D 94
 CE A4 4D 51 EC E8 45 DB 56 ED A1 4C 64 F7 F5 F9
 8A 86 CE 36 6A 1F CD 61 F4 70 59 58 F9 4D C4 5E
 17 4B 8F 99 C1 C2 11 8B A1 14 DA 7B 8D BB CB 70
 0C CB 2A 17 3C DA B5 65 E8 A8 A2 2E 81 4B 7F 41
 DF AE 22 E1 AF 22 59 F3 0C 3C 5C EB 94 FE EB 80
 4D CD 39 02 ED 85 06 2B A2 A0 12 F1 E9 AE 64 52
 D0 8E 12 4E 83 BC F6 20 23 3A 58 DB 1E 84 BB EA
 0A AB 3A 4C 22 B6 E4 C4 9D 60 8F C0 E7 C6 37 73
 AF 3A 5F 7E F9 6D AA 23 A7 7D 6C 0D F1 4B 1D 4F
 3F 5E 1E E4 28 7C 68 7E 54 D3 D6 B6 4C F0 9B EA
 94 A7 6E C6 6B 0A 57 4F 75 58 5E F2 F7 F8 C2 D9
 AA 9F D5 7C 43 A8 75 BA A9 0E 71 B1 54 23 B3 0E
 0E E7 47 C0 73 D0 CC 67 2C FA CE A6 D8 A6 9E B9
 93 59 04 1E F3 97 5C CA 65 E6 CE EF F9 9D 0E 0B
 AE 47 BF BD EE 6C 85 F6 11 EF 92 A5 61 8A 95 99
 BB 07 B9 C3 F9 67 09 AA 4B 36 33 FD 6C EA BD 82
 F6 BE E2 5F 91 84 BB 56 1B 00 AB 2C 76 A4 5D 35
 C0 F0 87 3B 0F F5 EE 03 45 2F D9 1A A1 6F B1 BD
 3C D8 36 43 DE F7 EB C6 ED 55 2E 82 1A AB A7 89
 25 35 5C FE E0 6C 3F 4F B4 A7 E3 67 7C 4C 00 5A
 73 F0 E2 0D C6 9F B6 C2 BD AB A5 B9 26 EC 61 4D
 89 96 4E A2 0B FF 29 B9 E4 8A AE A4 B2 52 9F 03
 59 F2 DC BA 4B 2F A8 40 17 12 B5 C9 00 B2 3C 9D
 8B 78 08 B5 07 D3 2F 37 6C 0B F0 7D 09 86 95 A0
 7B 54 99 87 2D 62 F1 25 39 C9 E9 1D FA 66 97 63
 FC 32 B2 2F 3A 95 F9 25 1A 50 04 B7 87 DB 59 B5
 49 72 43 07 A3 E7 E0 06 18 4F BF DF 89 F0 D0 B0
 D1 23 31 D5 49 0A 6E 23 42 74 2B FA A9 7A BD 95
 69 EC E9 C1 C4 D1 66 EF 58 30 59 33 5B 6B 44 D1
 11 3A CC 37 D7 5F 9F E3 AE 4E 5C C7 10 9B A4 0F
 84 D5 CF 5B 6A 78 BE 60 7D 3A 0B 41 91 D7 FA 1D
 8C 75 6B 98 5B 7B 1F 68 27 FC 67 BA 29 83 31 6B
 6E 9C F5 C3 B4 D7 24 BE F3 D6 01 F1 2A 95 D1 8B
 10 FA 23 64 C8 70 38 DB E1 BE D1 AB 32 F1 A5 DB
 1D 95 38 6D F0 B4 C0 A8 32 B5 FB B0 04 F9 5C 0F
 E7 F7 00 BF 2A 56 9F 56 28 36 D7 83 5F E2 B1 AD
 DB F5 8F DD C9 DE 31 72 42 F0 C8 9D A1 C9 08 0C
 08 FD 85 DC 04 C0 B5 B3 01 EC 54 7E EE A3 52 79
 1E 1D CC 4D E7 0B 67 EA AB 5F C1 F8 D8 7F 79 F6
 F6 F1 9B 5F 00 89 7D 82 F1 C1 B7 76 14 EB BA 1A
 14 F2 58 93 41 E0 AA DA 84 AB 52 E4 15 D6 1D DD
 DC D4 96 8F 52 DC 05 A3 F2 B6 38 23 21 94 E9 97
 54 27 7B D9 AD EC 01 7E BF 70 E7 83 2E 36 1F 31
 BB 51 95 8D 33 72 09 20 72 AD BC 5C 80 C9 7B 66
 F2 DB F0 CA 13 58 6A 6D BA B1 FB 60 B5 3B AF F8
 23 87 BC F3 4E 3C F1 B1 BB FD 6B 3B 32 C4 FF 58
 E4 50 8E 87 DC FA 9F 37 3F D3 B4 09 7B 12 6F 34
 98 C8 C7 C1 D8 AD 1C 3B F3 FD 16 B8 44 AE 72 44
 10 B7 CB 09 67 AC 89 B2 3C F2 E8 0C C5 58 9F 61
 D5 EE 9C 11 E7 4C 6E 7E EB 0B 18 08 4B 3C EF 7E
 E2 FB E8 B7 44 2E 1C 76 AA F3 FE 01 C6 E3 DF 85
 1A B4 61 4B 48 7C 65 68 44 3F 8E BF F1 F5 22 10
 21 4E 99 A8 57 D1 B0 A1 6B 2F C4 DE CE 5F E1 DE
 76 12 D5 FF 16 B5 F4 CB 74 6D 30 D1 B2 0A 17 8C
 2D E5 CB 80 11 6D 6A 35 C4 1F 90 CA 55 D6 B9 4E
 FC 9A 66 02 12 72 3F 7B 90 B6 7C A7 E0 2F 74 DD
 2A 7D 97 BC 36 E5 97 32 EF 4A 5D A9 AB 7C 85 76
 CF 53 12 22 5A CB AC EC 06 05 FA E7 64 BA 51 A9
 86 ED D0 14 02 E3 97 73 53 CC 18 5B 09 58 04 35
 3E EA 05 50 D4 BD 75 84 A6 70 18 16 8F ED A0 00
 12 45 1C D9 E9 19 49 65 B5 EB 01 A2 B9 F8 0F D0
 39 37 93 38 3F A1 6E 97 71 BE E3 A1 E3 81 86 D3
 91 8F CA 45 79 15 2C 56 28 5B AE 60 59 1F BA AF
 9E 02 70 27 1D 10 D3 4C
* End 1820460303 2138130509