* LTspice Encrypted File
* 
* This encrypted file has been supplied by a 3rd
* party vendor that does not wish to publicize
* the technology used to implement this library.
* 
* Permission is granted to use this file for
* simulations but not to reverse engineer its
* contents.
* 
* Begin:
 42 6F 10 13 A4 4B B1 E1 20 EF 6F 34 10 F5 08 06
 D8 26 EB 07 03 12 BA 83 62 F5 48 78 27 D7 C8 63
 11 A0 82 CF 6D 84 52 77 D9 CE AC BD C5 B5 2C 23
 FB 11 7F 62 C9 AE F7 DA 1F 27 CA 97 B2 42 18 F1
 20 21 53 C3 19 AA 7A 85 22 6B 57 19 03 78 C0 D1
 23 54 D5 E5 57 BD 3C 7C D4 7F EF 7F 77 AC BE 7F
 80 5B 84 8F 72 E3 AA 8E CA 04 1D DD 10 CB B1 79
 BA D7 05 0E F3 AF 54 1E B2 11 B5 C2 50 96 AD CA
 92 AC 15 C1 DE DF 8F 19 30 31 10 BE 9A 27 A9 C7
 9E 44 EF DC E7 A8 AF 58 48 57 5E 92 44 EC 19 79
 46 61 65 F5 9E 25 5C 31 A2 7A BE DD D5 C9 19 12
 9C AA BF 4F 7D 3C CF 3F 0A 18 8C C0 96 BF 6C BD
 0B EF 18 65 89 14 46 A5 5A F5 E2 AE EA D5 8A DF
 A3 A6 D0 19 C9 40 6D 00 1A EA BF AD E3 F9 63 C2
 86 CC 5B A3 52 95 84 A2 FD EA 3D 90 83 99 13 1D
 6C 03 4C EF 87 02 E9 9E 71 3D 6F 6D AD A2 63 65
 90 6F 93 C9 7B 8E 28 B3 7D AF F2 87 20 C2 5F 12
 C3 0F 97 16 05 74 D6 1E 0A 65 3A F9 68 6B 58 66
 F2 19 D8 F3 65 5B A4 20 E2 EF 29 A7 1C E9 51 C8
 EA 96 7E 5D C4 1D 21 F0 DA A2 4D 2D DA D4 9F 79
 1C DA 4A 2A 5A 5D 57 79 9F B8 68 DD C4 38 03 B3
 F0 06 78 05 5B 18 B4 E7 AA 98 08 97 2F D5 C0 DC
 47 77 36 7F 41 9A D5 E1 3B 73 CB B3 D9 69 60 AE
 09 39 9A 23 0E 11 77 C8 2D 63 45 95 B6 A8 AA AF
 BB 63 8A 69 CB 5E 41 BF AA 5A 75 D8 BB 96 BF E6
 C0 7A 7C D9 B5 62 96 19 DD 4F DE B7 6C 46 6B 89
 B9 BB 03 9E E7 25 F6 84 9F A5 F3 51 D9 2E 91 FE
 D4 41 7C 64 77 65 B8 9C 52 DE CC 3A AD EE AE A8
 D7 1F D7 88 7C E6 E9 A2 A2 3F 1C E7 F2 D3 BB 53
 56 B4 0F 1E 1E D0 36 57 FD BC E3 32 54 D1 25 17
 77 6F 88 44 A1 33 AD 02 8D 0D A0 32 DA 37 BA 94
 05 84 34 B6 2A DD 63 FE A2 89 C4 C6 8B CD 55 D5
 4F 0C 61 2E 89 F6 8B EA AF D7 B3 CF 50 34 D9 C2
 94 0B C2 D2 E7 91 56 0A F7 43 22 A4 B2 83 AD 45
 7E ED 31 7E 84 53 6E F7 C2 4A 50 57 C5 F3 4D CF
 04 BC EA F7 E8 7D 24 60 2D 23 42 9B F8 44 B2 B7
 06 41 A0 D5 FA 5E 20 E9 A2 09 D5 55 69 EA D8 CF
 B3 B6 38 ED D4 CC 67 1C C0 DB B2 C4 88 61 39 3A
 DE 5A E1 9B 65 31 2B A9 B2 6B DD 9A 70 43 23 B4
 9A A7 BE 58 E5 56 E1 58 75 FC 58 88 DB A5 50 D0
 A6 12 3E 0C E3 1E FC 81 D7 48 DC 7A 07 FE 9E 1A
 5E 60 35 FB AD 6B 7A 9C B9 D4 FB F2 E9 A1 84 EA
 86 E7 20 02 F0 13 91 16 10 E0 03 F4 50 50 89 B6
 9E E9 4D A8 5A 55 8E 3D 2C ED 82 7C 51 B3 45 C3
 25 C6 D8 6B 33 C2 F5 BA 99 9E CE A3 5B 70 AF 0D
 7C 3F 10 25 A8 E8 ED 23 18 5E DE 27 B4 41 46 44
 27 7D 34 2F 50 1C 10 58 AA 4C 86 FD 47 0B D5 D1
 8B 76 D4 5F B1 F2 E5 73 5A 2F 4C 97 88 A3 45 46
 60 6F 9A 53 86 C8 DC 2D B4 11 33 55 0A 38 07 09
 CE BF 7D 1A A5 6E EC CE 2E 45 9B D1 CC B1 5C C6
 7F 42 86 56 C8 DA 02 D4 8F EC BA 8C A8 80 23 CB
 0D 53 81 97 20 54 6E E4 3F 49 92 6D 61 5A E1 F6
 75 C2 1C 40 C0 8D 4F 92 7C EC AC D0 1A CB 59 E0
 D3 C4 57 54 36 74 EF F6 BA 38 B4 A9 13 94 86 34
 1D F8 58 00 11 10 44 A1 06 20 E8 CA 4D 3D 65 BD
 41 13 3B 18 8E 6F C5 9A 83 D1 50 D5 36 D6 F0 8E
 6B 3A 90 1D 0F 34 6B 39 0C 75 7D D7 69 6D 75 F3
 60 DA 88 F3 CF EE C8 AD C0 3C 6E 7C BF 05 F2 3B
 1D F1 9C E9 85 B8 FD 2C E1 F6 47 EC 02 E4 86 FC
 38 88 A0 96 1B C3 99 75 4E 86 24 50 11 0D E1 09
 C9 29 68 99 F5 AA 00 69 76 67 E1 21 EE 53 8E 13
 AB 9F 8C 54 3B F0 C5 93 C8 F0 B0 4D F0 21 7E F7
 A2 82 27 14 51 46 60 5E 2F 3A 13 77 9B 7D 83 B8
 8D 37 94 F3 A7 7D 08 C0 5C 90 10 5F A8 0E 13 D0
 4D 71 09 99 EC 4F 96 8E 62 08 B2 C5 54 40 4D 60
 70 6E 4C 0E B5 A0 D6 12 AF C8 8A 78 92 78 C0 EC
 FF 1E 95 37 81 14 F0 59 D5 D0 C7 66 72 84 E5 97
 12 DF 60 66 B2 5B ED 70 72 D6 E7 37 97 3D D7 5C
 38 CF 74 05 7E 72 8E C0 B4 82 4F E8 D4 BE E0 01
 00 20 F9 70 6F F1 82 59 BB 1B A2 C4 99 65 FD DD
 1D C5 8C BB C7 6C D6 D3 F6 17 73 92 9B 5A B1 C8
 20 72 D6 94 B7 36 6E 82 95 2D 03 BC 1D BD D8 5C
 D3 65 42 C4 C4 19 59 A2 09 8C 95 0C CE C4 AE A9
 38 89 A8 E0 19 33 99 E2 52 88 CC CC 24 BD F1 19
 70 4A 07 B1 0A DD CF 94 57 DF 84 42 20 C6 AA F3
 E7 A5 78 ED 80 F2 54 A3 89 9A 8C 93 D6 7B 8D 60
 F5 FB 24 87 20 FB EE 5D CE C8 3C A0 C4 0A 30 9B
 06 B7 2F 28 2A 18 72 2E BC 31 D0 91 9A 53 30 B7
 AE EE 4A 86 64 46 FC EF BA FF 5D 61 11 2F DD CA
 E5 B7 FB 7C C1 BF 31 8E 7F 25 1B 96 A8 A8 77 6C
 3F 43 35 E5 01 6F 6B 07 B2 AC 3B A0 C3 ED 73 9A
 7C 01 97 AB 58 75 EC F2 67 65 F2 4D DF 0F 71 B6
 30 07 12 C6 B4 30 B7 74 D5 51 4E 21 0D 25 1D 01
 14 51 55 83 2F 6B A6 FC 72 D0 4C 85 98 B6 81 FF
 45 FB 5E F2 7C A9 F3 E3 EB FB 81 EB 31 42 1E 28
 96 EE 01 C1 12 3A CE AB 0C F0 6F 20 09 BF F6 55
 78 83 17 BA A6 94 E5 FA 19 BD DE 97 27 E8 00 AA
 60 0D 3B 64 87 86 C8 5C 20 E5 15 24 F3 56 24 B1
 26 78 15 19 AE 01 71 F8 93 0D D9 57 77 F5 E0 23
 71 E5 0E 11 E9 6A EF B4 29 31 59 FB 5E 80 72 66
 70 85 EF 95 A3 D3 2A 39 FF 20 FF 0A C4 52 14 35
 0A FD 24 0A 01 0B CA 75 B9 27 5F 5A 7D FC 26 ED
 B0 88 FB D8 3C 71 82 6D FE 93 9C 22 B7 28 05 68
 CC 9C C2 52 FA 52 C5 1E 7B 04 41 2F E1 B8 49 E2
 A7 43 F8 E8 1A 91 D4 BB E4 04 01 97 35 F5 EE 50
 87 28 3A D1 D8 B1 C3 26 63 02 0C 86 DA F2 74 D1
 3F BA 8C A8 C4 49 F2 36 15 7B 2E B7 0C 9F B6 C0
 19 EE B9 F7 BA D3 8A 3B 3B 40 B1 2E 69 4F 07 71
 64 86 51 FC 37 D3 62 41 75 D2 A9 33 AD 79 A5 38
 D5 89 57 78 EC EC E8 7D 47 61 54 5E 6F 40 AD 8A
 BE 7E 82 D1 EE 58 13 5F B5 5F 0B B6 13 5D 41 84
 1D 55 1E 13 2A 93 41 7D 20 6A 8B 9D 4F CA 63 B5
 61 47 B8 30 2E 92 5A 5B F1 75 A7 07 11 4B B6 DF
 37 BD 9D 91 6C 8D 02 29 6D 5E AC DB D8 D5 2A 5D
 33 55 21 21 CB 05 27 19 B0 19 23 77 38 CC 5F 62
 71 65 E8 6D B0 F3 EF 22 A4 BE 4B B8 0D D5 2B 3F
 15 39 72 0D 4E 65 C3 14 6A BC C4 72 4C D0 10 74
 DE A0 FC 55 94 3C 31 14 2D 00 44 54 F4 50 9A 50
 57 96 3B DD 62 93 5B 27 0B AF A4 DF AB F4 E2 F1
 30 94 B0 68 4F 30 E0 BC 96 D8 D2 DB FE 6F 83 7B
 9C D7 4E 30 FF 4D 9E 27 95 2E AC C8 76 E7 EA 79
 3E 55 0A 09 AC 7C EC 32 56 E6 C1 C0 2B 97 99 A0
 00 90 7F 18 3A AF 6A 8A 7F A8 12 D5 C3 75 81 CA
 63 70 24 EB 5E 83 8F 06 7F A9 CE 09 D1 73 42 7A
 AC 95 84 A9 BD 2A 2E 01 E4 DD 81 17 BB 22 B6 1A
 FE CB B4 6E EA 17 6C BF 6A C1 B9 A4 E7 F7 D5 98
 9B F4 3C 53 3D 92 EF 7D CC 94 01 8B 93 3F 99 9C
 B4 FD F0 2F 23 FB 13 2B 7E A7 AD 9B 36 E3 DE F7
 DB 7E 87 D9 1E 44 5F 48 7B 07 59 D8 6C 18 14 6E
 8F 76 83 80 68 B4 3C 3E 1A 5A 4F 4E FA 28 B1 BD
 61 1A FC 17 00 40 97 32 3F 11 F1 58 56 78 71 60
 D4 89 89 3E C7 AF 00 21 A9 9A B1 96 AA 12 85 25
 95 11 B4 05 1F 7F FD F6 0C EE 23 DD D3 F6 50 4F
 4A 5C 68 83 2C EA FE 38 5C 34 90 19 A8 71 5C F3
 5D 09 F8 86 85 5C CF A4 1A 1B C6 39 BE C0 56 6B
 D7 22 C6 56 90 B5 39 58 33 9F 47 16 06 36 38 64
 FC D4 E3 5D 60 F7 3E 50 39 10 AB 36 D8 DC BF 20
 70 AF BA 7B 7E 5F A8 EB C6 DB 46 C1 7E 4D 66 BE
 9E A4 C4 3B 09 E5 3F 56 B6 88 21 FA FE 99 39 D9
 B2 4C EA 62 73 46 8C B9 73 EA 0F 16 5F 4C 95 AC
 47 B4 01 4E 72 E8 97 1F 7A 23 FC DA BF BD A3 6F
 33 89 9A CD BB CE 3B 07 0F C1 2D B0 B1 5A 73 E7
 01 49 14 F0 31 5C 2D 42 C6 45 6C 7A D1 23 40 9B
 94 12 21 5F FD 52 FA FD 37 3D E8 27 76 84 5E 0B
 16 79 C8 9C 61 7D 1D F4 75 C9 2B D0 4F 7C E4 57
 17 33 02 1C 0E A8 14 66 FC 79 55 F2 33 FA CE 13
 97 98 68 D1 AC 42 E0 50 09 96 50 BF B2 D3 59 2D
 89 8A 62 D9 C2 95 69 BE 1E F6 C6 FA 55 F2 9C EA
 1F C3 BB 78 66 69 95 34 B4 63 CF 5A 5A A8 84 46
 1B 20 86 C6 A2 EB 80 97 40 0F 3F 9F 82 D3 12 5B
 11 76 5B CB B1 06 40 45 CA 84 9E E8 C5 1C 1D 9A
 77 4C CA 99 60 F7 7E 97 96 12 4D 77 E0 98 CA 29
 89 30 A0 33 E8 EE 71 E3 48 20 01 60 DB B9 BC 76
 5D 2B B1 32 AE 49 3C C3 A1 FD 0D B1 F4 B9 BC 0C
 E1 8D 1D 4F 41 5E 4A 1C FD CF 3E 68 68 B1 9D 09
 3A 69 52 05 5E 59 6C 5A 11 A8 7E 3F 30 EB 46 59
 9C B3 AE 47 82 95 57 52 24 B8 55 AA 09 9E 8C 51
 E7 D8 37 B4 2A 32 ED 90 17 80 BD 8B 4B 6F 80 E9
 48 21 9F 6B 74 83 B2 CC D2 30 C2 7B AF 2A 5A E3
 9A B9 27 FB 29 54 6E A2 A3 74 60 7D A7 AA 20 80
 18 EF AA A7 8E B4 80 0A 96 8C 47 6A E0 95 A9 8F
 F7 46 D6 39 9E 69 F0 0C 17 4D 8C 8B DB F8 74 5E
 BD 72 86 88 40 3F 21 41 B4 E9 0B 74 48 C8 9D 81
 0A 05 75 21 A5 6D 3E AC 87 4E 95 01 AB 7B 76 14
 B2 8F A5 F0 D1 7C E8 70 6E 36 A9 DC C4 D9 C9 34
 98 65 AD AC A2 5E 22 44 2E 7E C2 80 8F 76 66 F2
 F4 CB AF 49 7F 52 4C E5 0E 97 73 A4 11 C9 16 F4
 B0 BC 10 C6 93 A6 81 EE 5D B6 90 63 86 B0 18 F3
 DE BE 5D 10 63 FE CF EB 5E 9A 9A EE 26 9F 2B CF
 9C 40 F1 1A 6E F7 1F 10 5F 1F EE 77 30 05 7E 29
 50 48 9E 66 CE C7 E5 ED D9 AE 2B 75 94 8F B1 67
 25 FA 6F C9 DC E6 5A F0 28 0A 8D F7 B6 1D B0 EA
 3B 89 57 93 93 60 25 D4 F1 71 77 DD 98 48 0C 7D
 E7 41 08 36 7E 87 69 A3 7C 41 C3 24 1D 49 30 07
 33 EF 46 A1 68 8B 69 F8 F4 B2 36 AD D6 D4 02 CE
 9A 7A A2 FF 71 65 A2 F8 DD AA D9 92 FA 7F AE F1
 07 46 A1 CE AF EA A8 4B FA 77 E9 51 ED B8 C5 00
 56 CD 0F 8C 97 A4 1C D7 16 91 D2 78 9C 46 84 84
 54 CB 83 25 4A A1 08 0F 8A A0 9D 66 2D 62 58 2D
 B0 30 68 1A 0D B8 16 AD 19 8E E6 36 CB BC 85 2D
 D7 71 E7 0F F5 C9 74 06 4D 18 5C 48 A4 DB 63 DA
 FB E6 E1 4D 65 72 06 7C EE 14 86 15 7F 5F F3 80
 3E 97 24 64 A2 99 1E 6D A6 70 2F 2A A6 5B 50 20
* End 3120728651 2083560021