* LTspice Encrypted File
* 
* This encrypted file has been supplied by a 3rd
* party vendor that does not wish to publicize
* the technology used to implement this library.
* 
* Permission is granted to use this file for
* simulations but not to reverse engineer its
* contents.
* 
* Begin:
 20 66 6E E2 5A 27 10 8F 8E 1C 4D CB 9F DC B1 61
 3C 6E 24 BB D6 58 8C 16 CF A8 45 44 46 A0 48 39
 E8 D1 21 85 8C EF 62 3F 9F AA 6E 57 C1 14 D1 8B
 7B A8 01 0C 9A 2A 90 43 31 25 30 22 6E CF 0A 75
 A1 32 59 8F 3D B5 77 26 DF 2B 4E 88 2F 73 9A 1F
 1E 01 67 86 CC 89 68 EC D4 A5 49 D0 7C 03 66 A2
 F7 F5 19 7F D1 AF D7 D3 51 C9 33 99 D5 D7 0D 9A
 F5 96 F6 DD A6 D3 D5 10 94 C3 4F 6D 33 B8 59 32
 50 A7 65 C4 D6 92 FA E4 4C 3C 66 13 63 7F 95 8E
 83 AF D8 32 CF 1C B0 19 7F 5B 17 D8 49 80 4C 7D
 1F A8 DF 0B E8 FD CC 23 85 14 5E 6C 74 71 1E F1
 E8 D4 52 F5 18 63 E0 EF E1 71 09 8A 28 73 95 17
 B5 13 8B A7 E2 E8 59 E2 A0 61 4A 1C 0A 66 91 B9
 89 B6 0C 03 DB E6 97 F1 0E 77 F6 A9 D6 C5 DA 04
 9B 0F 82 F2 D3 2C AC 33 7B 94 B9 74 02 FF D3 A1
 D8 E0 A7 2A 8E 2B 29 C7 1B 2F A6 AE 7B 72 6B 09
 2F 8D 3C 70 D5 ED 2C 07 48 65 BF E3 25 3E 63 E2
 05 29 F5 0F F1 76 ED BD 14 BC 2C 87 05 BE 9D 2C
 38 20 DB 7C F0 C7 48 30 68 32 B3 E9 FF 80 98 3F
 A2 AC CE 26 25 AC 14 4E 0E E0 34 0C 4A CE DC F5
 F7 E4 9B 93 72 EC D3 54 EE 04 43 89 8B 95 0A A6
 E3 C2 59 C5 3B 68 D1 C2 0D CB E1 08 49 A7 05 00
 95 39 42 60 0B 83 72 36 37 2D ED 3B A9 70 0A BC
 6F 2F 09 1E 0F E0 F4 FF D0 78 77 E5 2C 31 CF 09
 1C BC 6B F9 DE 12 DA 10 8B 58 89 E2 EB 17 11 F7
 17 F5 21 8B 89 E0 A9 A3 5B B1 86 BB A5 E1 BA 7E
 EE 06 AC F5 C6 BD 62 DD 6C B7 AF 2A 8C 4F 97 BB
 55 2B 31 5B 1D D8 D2 73 40 78 E6 18 FE A0 47 51
 F2 F1 02 F5 AA 89 37 27 98 BC C0 EA BF DB 35 8D
 19 A0 64 72 E4 8C 62 31 71 5F 64 DD B7 12 DD 39
 05 5E 2D 93 AA 25 DC EF 04 CE 35 58 66 3D 19 0E
 5C A5 A7 F0 DD FD 59 E9 42 E7 B5 D7 85 D2 52 74
 D7 6B 24 59 C7 37 77 12 C8 72 FE A7 7C 4A E6 5A
 39 A0 DF ED 7C 4C 0E E6 B1 6D A8 20 20 1B 59 94
 1A 93 59 02 D9 A3 CB 46 85 BD 53 4F 00 48 45 BE
 45 30 A1 90 CA 3F 6C 39 6D EA AA 1A D8 A6 B3 25
 B0 F0 04 EC 17 BE 82 17 D0 40 CC FD 18 92 D7 DF
 41 D5 FA 71 66 29 87 5A 5D FA 78 1B 89 E1 65 11
 DC 8F 66 1A 73 F1 D1 A3 66 AA 7F 54 EB 40 5B 98
 28 F5 D8 1F 7E 0F 69 B3 05 4B 34 57 F4 62 D2 05
 1C C3 C9 2D 3B C2 57 68 03 71 DE 02 89 41 FD 8A
 FA 4D 72 98 02 6A 21 73 B7 76 0C 24 42 6E 4D AE
 BB 58 FA 0A 95 56 4A 82 88 DC 62 EB A3 28 12 07
 7B 25 CE 10 E7 C9 37 59 E2 9B 28 BB A2 41 7A 35
 3B E9 31 9E E2 2B CC 7C 41 4C 95 60 F3 93 C4 0A
 02 6A 11 15 10 8F 65 80 A7 33 70 12 65 AB 33 35
 5F 7E 16 09 66 25 DA FC 30 44 7F 4A 69 A1 04 A8
 7E 98 4D 52 F8 CF 40 0B 09 06 F7 55 D6 D6 86 DE
 88 A8 03 A0 7F 9C 55 6A 25 A2 5A A0 0B A7 39 80
 33 DF 49 72 B1 9E 09 95 13 D5 C3 6D C5 E7 32 D9
 3B 04 E2 0D 01 A4 67 4D D3 94 00 F5 EC 9C 74 AE
 A5 BF F9 BE 3C 52 80 1C 3A C8 51 8F 28 D5 B7 01
 3E 6D 98 B6 EB 32 A6 19 F2 D9 F4 07 B3 8A 89 0F
 94 9B DB AB 83 F5 A1 78 9C A9 76 5E 0E 30 E4 2C
 0B 70 98 59 12 C2 65 15 52 B7 AF 10 C1 6A EE 6E
 EE 2C DE 4A 76 01 11 79 A3 0C A2 C9 F5 14 3B AD
 49 20 57 22 FF 97 9E 9E 9D B9 11 A3 48 DC 6D 45
 B6 3D 7F 94 CD A0 8F 94 A0 C0 4D F2 F2 E7 96 F3
 73 75 75 92 CD 3E 87 B2 41 2B 27 D8 B1 7C 43 11
 4B 48 B7 9C FC 3B 06 8F DC 39 36 81 93 DC 20 00
 C1 8C 61 A9 5A 26 B3 D6 CC 60 2D F6 3F A1 EF 42
 76 EF DE E2 54 B4 51 00 E2 ED 6E 9D 45 3F EC D5
 4E 65 CE E9 A4 BB B3 BC 8B 42 D3 D4 B9 8B 49 E8
 A6 2E 5A 9D AA F5 C6 7D FA E8 37 08 B0 13 3B A3
 DA 8F 6D 46 5D 87 9E 27 2A A9 A7 E0 04 75 2C B8
 99 A6 D7 E0 91 22 1C DA C3 24 5E BC FF 37 C9 6F
 32 6A BA B9 C4 B4 EA CD C4 3D C9 17 D2 D9 F8 35
 0B 1E 55 4C 1D A9 0F 33 99 BC 78 C0 51 E2 6E 0B
 D3 BE 43 76 C1 C5 26 02 6A F8 0B 26 28 1A FA AF
 8D 22 10 EE A9 EC 39 F0 6A 82 A5 7A F9 BA EC A0
 26 3E 49 D7 16 FA 4E E7 EE 32 ED 7B 67 13 01 12
 5D AB EE 18 FB BE DD A8 85 FE 21 D7 73 68 2A 57
 EB E7 CA 6D 87 05 4E 05 6A 7B 3F F3 97 22 B5 E3
 29 7F 6D 1B 6C 24 D6 70 9E F6 7E 46 F1 D1 35 43
 0D 47 81 2B 2D 52 26 62 DB 0B AD 9D 88 DA 7F 68
 4C 77 DB 00 6C 9D 36 E8 43 97 AA E4 1C AD C4 E7
 6F 1B 7C 86 74 59 78 E4 02 FF 2C C2 EF B0 03 4F
 65 8C B7 6A 80 EC E9 EA 46 CA 1F 1F 89 C6 A6 A7
 12 C9 11 55 ED 37 FA 22 CE 55 A6 28 71 47 D1 05
 1F A3 26 00 C1 BE 62 24 B2 AE 4F 70 D9 7A 6F DB
 F5 3F 96 DE 76 4D 4F 89 3E EC 6C 64 CA 82 E4 EF
 DD 7E 0A D3 F3 3B 22 DF D5 A8 94 EA FB 9E A8 95
 F8 49 8A 49 0B 1E F3 00 47 A0 9B AB A8 24 94 69
 C2 1C 38 7E 1A 88 8C 8C 68 4C 7B 10 9E C6 F8 09
 D7 1F 7F 7D 49 B2 09 EF E6 38 15 C2 03 0D 20 BF
 47 7B 4A 09 79 03 8B 6D A3 13 63 B8 F7 A4 3E E1
 5B B7 22 26 1A 88 EA 48 60 A5 3D 03 87 E4 1D 93
 A4 86 F0 B8 A5 E9 ED 40 50 28 FF EB 97 EB 40 41
 6D 57 BE C9 6A A0 00 A2 FD 39 8A 23 19 C5 94 C0
 D3 4D B7 6D 83 E0 A9 E7 3E 68 C9 07 A1 DB 10 89
 16 21 0B 18 1E 54 70 DB 03 D7 0A 1C E9 5A E4 D2
 72 E0 23 5E 77 D4 E2 25 84 5A 8C 08 AB 8F 28 28
 55 DD 9A 7C 2F 38 4E CC 55 F3 78 85 37 7B FC 4F
 DA C5 3A EC AA 1A DF 9F FE 8A 0D F2 58 33 F6 48
 54 74 AD 51 AE 9E CD 6D 12 EA DF F2 59 87 42 17
 FE 3D 66 15 3F 4F 3E D3 75 5D 48 DD FC 2B A6 83
 1B 51 7C 52 A7 DF B2 53 38 09 CC 32 B6 0F 4F A9
 F7 2F 42 32 9A 18 7A 34 84 C7 D2 95 51 93 88 C8
 05 6D 88 00 29 6C 30 7B 9D 0C B1 22 02 75 A5 F4
 E9 75 DE C4 47 29 8A 8A 4D 8F 2E AD F5 2A 94 EE
 5A 89 19 78 46 0B 39 0C 97 29 7C A5 02 1C 30 6F
 8B 97 2B A5 BA F8 71 18 91 D9 CE 87 47 72 C3 E2
 49 8E 54 78 7D 16 C3 A7 A3 A9 E0 EE E6 62 6B 9A
 6F BD 79 1A 2B 55 89 E3 4E 41 51 90 94 52 C7 F7
 27 C8 F2 2D 30 7C 7F E4 9A E2 64 D7 29 B2 C8 98
 F3 BD 25 B2 5B D3 92 7F 51 74 BE B0 0A 1B EB 73
 5F 90 1E B0 2B 3D 38 81 4A E8 F0 85 7E 17 43 2D
 F0 06 55 13 18 78 57 49 7A B1 8B B7 2C 49 E4 B9
 90 2F BC 2E FC 0D 5C 58 00 A6 DA 2A 0B 8D AC EB
 1A 37 8E B7 F6 46 A3 C8 D1 EC C9 BC 8A 65 A4 A6
 05 4C 92 FB 7B 97 4E 44 99 9F E8 63 1C 49 1D 79
 D2 D1 C0 DE C3 9F DE D6 59 2C 63 91 29 1A 8D 14
 8A 1D 88 C4 EF DD CA 67 14 29 D4 4F 5F 2E 7B D7
 2A BB BB D7 61 22 5D 60 28 0E C6 16 AD AF A4 10
 5B 65 BC 58 42 00 E8 44 C1 E3 17 62 D3 AB 5F 09
 42 98 31 F5 9E 65 06 94 08 99 F7 D2 2A A8 92 0B
 D4 28 8F 65 FC D9 A4 88 5E A0 56 75 F2 34 9F C1
 F4 3E 9F CD 98 92 99 2C AE F7 F2 94 19 8A C7 B6
 55 61 3D E6 93 51 48 D0 BF AD 97 D6 B3 3E E0 9C
 C5 EB B0 3B FF 1A 6A 12 68 28 DD C3 0C C8 42 BC
 4E 08 F7 C4 F3 AC 18 D2 B3 47 E6 B6 CE 18 E8 1C
 D3 68 42 83 D5 DF 24 4B 81 68 3B 6D E8 AA D8 50
 28 35 6D 44 7F A1 B8 DA 8C C9 D1 1C C7 42 2F 39
 A4 ED A4 9A 2B D2 BC ED F4 0A 15 06 F7 B6 EA 6B
 63 93 36 B5 F6 11 B8 DC 89 2F 80 B1 55 AF E6 86
 D3 61 DB EB 77 42 32 C0 A2 4B 11 08 7A E2 04 52
 54 60 22 B2 C7 43 85 7E E6 9E 7B 46 C3 56 D4 5D
 D9 32 08 32 23 BE 64 B9 8D E0 B9 43 0C BA 4C F8
 5E 1F 9A F1 02 42 77 02 E3 8E B2 C1 FD A0 2D 4C
 1E 9B 71 D3 55 B6 0F 3E 21 E6 44 EB CE D4 32 74
 66 ED DE F0 FC A3 A9 31 19 ED 82 7A 40 F5 33 67
 C1 0E CD 27 2D 58 F3 17 A5 F2 14 B3 A6 86 2A 91
 9C BC 40 E2 4F 13 34 14 1B 67 B9 78 DD BF B8 2B
 33 7F FC CE 9B E2 34 81 7A DA F0 CB D9 F8 FA 54
 62 54 75 FD 71 AB 21 DB FA 38 93 AC C7 91 83 9A
 5D 73 24 7F AD DC 26 43 B8 6F 2D AB 0B 4D 08 1E
 6C F9 BF E0 66 7B E8 30 93 1D 0F AB 82 6D D1 70
 BF 28 6E 6E 43 EA 5B D5 8C AB 45 38 13 B1 CA 94
 7D E7 3B 22 C9 BC 02 4E F8 71 9E 79 D6 9A 71 99
 D9 FE 0B 9F 3E 3E 99 70 7C AA 4E CB 36 FF 01 54
 25 BD BD 57 CD B5 82 5D 41 E0 A2 E0 49 58 13 BE
 23 E5 EE 63 FC 10 71 47 02 BB 17 0E 90 7D 85 6E
 24 88 F5 2E 72 93 DA 4B 3F 38 B1 CB 70 62 73 2F
 79 DE C7 B2 87 9E 19 27 31 B9 CC 8C 4C 89 B2 43
 E1 87 62 18 00 75 52 0F CB 43 FF 57 99 EF 56 28
 98 33 66 48 7F 89 CD 1E 5A AC 1D 87 1F F5 A4 84
 E9 37 61 B4 30 17 68 83 60 70 53 DE 1E CD BF 3E
 FA F1 E0 A8 95 D6 EE BB F9 CF C5 1B BA 58 CF FF
 03 0C E4 64 95 2F A1 35 CD EA 8C FC 17 9B F3 89
 37 44 89 47 71 46 01 2B 0D 47 20 BA 9E 9B C6 62
 78 4A 6D 3C 58 08 46 EC 12 86 1A 15 D0 6A 22 0D
 79 33 37 FE 35 7A 4D EF 08 D0 F9 81 E6 90 A7 67
 75 23 56 92 35 B5 D5 10 17 60 1E 3B 13 1A 53 CD
 18 EB D4 98 C8 F9 BD 83 D3 95 42 CA EA 6A 5E F0
 21 DB 9D 86 6B DE F7 99 4F 14 11 C7 EA A6 92 B9
 83 EA D3 2A C8 68 A9 82 75 8D 5F 1C B1 01 0B 15
 77 D2 6E 62 47 37 CC 7B 5F 94 A2 F2 55 50 1F 32
 05 D6 06 B5 37 46 4E 34 9F DD C6 4D BF CB 64 12
 E8 80 B4 A9 25 27 CF C0 41 48 38 C4 41 42 C0 1E
 CB 8A 75 30 9C D9 B2 9B 1C 3F A7 33 F9 A0 C7 6A
 73 31 A1 17 E5 7B 97 B2 C8 95 0A 58 09 F5 9F FE
 F7 A4 C1 0F 47 58 F9 3C 57 2A 21 63 E5 56 C5 FE
 D7 90 BE 78 0B FE 28 1D 66 20 AA B8 25 FF 01 FA
 72 D8 DD 9F 72 D7 68 82 87 E0 82 AF 45 B2 B8 D9
 6C 23 E8 96 05 23 8C B5 77 54 55 25 96 13 A5 EB
 1E F5 91 E6 6A 1B 39 7F 70 DA CB B4 49 EB 46 B1
 06 EA E1 97 A0 0F D0 50 BF A4 44 21 4C D0 FB C5
 37 72 CC 0C 75 F5 81 DB F6 2F A2 E3 8B 04 38 1E
 58 DD A7 8E 34 78 ED 13 8A 34 4F 90 0B 41 DA 21
 29 8F F4 7F E4 96 84 E0 BD 05 20 5E D3 79 55 76
 65 E1 1B 5B 2B 17 43 80 9D 3F 6A C1 6F C0 DA 9D
 27 78 B7 EB F3 8A 82 9C 86 21 B3 5E 60 5F 8C CE
 32 55 CC 77 0F 8A AD 33
* End 3676924415 3734963150