* LTspice Encrypted File
* 
* This encrypted file has been supplied by a 3rd
* party vendor that does not wish to publicize
* the technology used to implement this library.
* 
* Permission is granted to use this file for
* simulations but not to reverse engineer its
* contents.
* 
* Begin:
 FA AB 49 5D CE FC 33 FA 09 22 2B D0 BA 78 77 19
 BE 20 B6 3C DB 07 0F 1C 5D 90 81 6A D8 30 E1 15
 4D 99 09 92 1E D3 10 C0 72 CF 54 E3 C7 D6 BF 77
 00 4D B8 6B C1 4F C0 45 BC 6E B9 86 68 FF 15 34
 8B 84 59 D7 6F E8 A5 37 80 D0 FF 4C 74 6A 06 F1
 DB 23 DE C7 54 7B 58 8A 29 CB 98 CE 90 F2 AF 6D
 27 D8 EA B2 A0 2A 52 B7 04 FB 2D AC E4 C9 2D E7
 F6 D7 02 CF 88 B4 05 A5 B7 03 EA 2B 3A E7 6C 0D
 1C EC BC 5A 06 EB C8 9C 37 27 28 2F 8C CC 66 80
 6F 83 45 DF DB 9C 94 52 22 22 C2 33 94 33 B3 6C
 40 BD 76 4D CB 25 C1 C7 FD B1 6B CF 93 59 02 DB
 CE EA A2 1E 98 6C 57 B8 C1 87 4D 1B BA 10 C0 04
 5C 11 22 7D 2C F8 52 8A EE 0D E9 BC ED 99 D6 15
 BD C9 6D 9B F9 95 D2 95 A5 FA 11 51 79 70 17 4E
 ED B2 D7 4F 65 92 CB 2F 4E 35 9D 82 AE 20 A9 FF
 9F E5 B6 B2 1F A2 0A 63 3B FD DD 4A A0 BA E2 B8
 7F 1B 2E 6F 40 DA 50 5B 21 DD 66 C4 BC AA A8 CE
 46 4B 0A B7 B2 CC 6E 31 A0 27 F4 11 2C 31 8B 2F
 A4 4E 0B B1 83 89 48 93 5E DD 44 8E 0B 4C A7 58
 3C CC 50 1E 13 A7 B1 ED DF 90 81 48 03 CF 18 81
 9C A2 94 8C 2C C1 90 74 2A BF 48 47 6D 68 0E 68
 EC E6 07 8B D5 A7 90 19 9B 1F E0 3B 24 45 43 3F
 58 DC E9 0C 48 17 52 0E 6B D2 4A 2E 69 4D FC 65
 FE 1B 63 53 C3 F9 37 0F B3 2C 6B 7A 52 C7 2D 8C
 B2 F1 0E F2 89 13 2C 92 03 D6 67 2E B8 2A A4 29
 C4 D2 08 BB 6E 6F 1E 9C 27 55 4C 08 62 E3 BD 8E
 E3 CE 94 7D 28 B4 87 F4 39 25 F5 7C A3 E3 58 FF
 52 6C E5 AC 8A 75 90 9E 80 C8 BE 58 74 81 E4 D6
 06 E2 CE AB DB F1 87 28 63 3C 76 93 2B 3D F1 EF
 60 3D 7E 11 2C AD 8C 38 3D ED 40 C3 B0 3B 70 C8
 F6 2F DB 79 CF CB 10 4D BF 97 DE B2 33 84 19 BB
 5D 34 E5 72 6D 90 9B EA 5A 1F 2E 4B C2 C0 D1 14
 8C 47 52 34 70 F9 C2 23 23 47 3E C8 4A 35 37 45
 F0 47 E5 2D 0D 51 6F EE F3 36 17 C9 15 16 C7 A8
 D9 C8 8C 2A 8B BC 38 67 91 48 06 39 6A 4D C8 6B
 CB F0 38 49 3F 51 C8 DB 27 EE 9B 4F 12 4E 36 E5
 0C B6 3B 8D 27 06 3A BC 89 F8 EE E1 F1 91 87 EE
 9C 0D C1 52 24 E9 8B FD 14 52 34 F8 6C 9E EA 4D
 8E 1C 9E 19 63 54 7E 57 79 2A 56 DB 06 B8 12 E9
 49 11 94 E4 EC 03 D8 42 D6 F9 07 29 B1 4D 68 B0
 87 74 77 9C EF 68 A5 93 9B AC 18 EA DB 68 A9 D4
 86 C2 E1 53 DD 72 C7 52 3C 85 A8 C1 F8 23 2A E3
 93 F6 BB 04 97 12 C7 B1 BC AE EF E3 69 3C 42 89
 80 E2 F7 24 05 E0 AE 89 9D 76 04 FC D6 F6 78 8F
 64 83 33 ED C9 EC 2D 8A B4 48 6E 00 71 FC FE EA
 A0 0E 34 0B BF 2D 4A 17 17 B4 2A 1D A8 31 8B E7
 AD 97 95 DA 9F 05 61 BC 24 43 8C FB B9 38 C8 16
 75 BE AF 03 94 10 19 42 A1 21 A9 79 CF E8 11 66
 E9 60 79 C0 6A 92 55 26 BD B1 9B 39 15 C9 EF DB
 62 D9 54 B2 0A 04 EF F4 BC 90 29 2D 0B 83 82 36
 EA 66 36 59 9D C2 82 49 31 11 64 88 00 15 DE CB
 BB CC EF 0F 2B 17 32 FF 40 E8 23 02 30 2F 6F 47
 C5 CF 36 A1 99 9D 78 D9 C9 1B A3 EE 02 F3 A6 7F
 30 E6 67 9F 31 BF 7D 3F EB 09 E7 6F F1 B0 25 43
 DD 4D A1 51 96 53 15 59 4F EA 59 8B 4D 57 77 B9
 2E 89 A2 5E 4F 18 24 95 17 58 AB 3F 7A FD 9C 4C
 AE 6B BE 37 10 54 D1 DE 05 97 86 45 51 6D B7 72
 55 52 AA 4A 78 55 A3 44 42 19 0C BD 76 05 E8 CC
 09 2A FD 4E 50 5A 22 77 65 8F 77 96 4D 05 89 BF
 89 3D 5F F0 32 61 C3 7F 8E 99 FF E7 9B 40 2B 3D
 A3 F5 F5 15 3D 22 7C 8A 2B 00 EF 5E 45 5B 6C 16
 E1 2A D8 8A B5 D0 D6 E6 3E 3A D1 76 5E 5E 69 47
 E7 50 64 CB 71 C7 34 95 B2 D1 E6 F2 C7 78 B6 79
 B1 FE CA 0B CC 43 72 68 33 8C C5 BB DF B1 E7 B8
 A3 A2 6C 57 4D 1F 3A F2 43 6D 84 C3 A1 93 66 A5
 03 03 5D 5D BC DF 90 CF C0 D9 B8 41 80 05 B7 B4
 E6 87 1D 71 5A 32 DA CB F9 7B 92 D8 54 E8 3F D1
 D9 8B 9E 90 6C 5C 9E D7 EB 52 01 5A 47 6E F7 EE
 1C 9A 92 EE 73 71 A5 4D 23 EF A2 35 13 DA 6A 53
 ED 95 B3 7A 66 B5 7B 71 9E F8 31 22 95 7D A3 DB
 FE 17 DD 87 4C 37 66 92 EC 74 6C EB A5 07 72 30
 8D C5 D5 AE 4B 36 56 F2 D4 47 DB CC D2 4C 6D 98
 58 27 3A 82 2D 2A 2D A9 72 F5 35 7F D2 0D B8 FD
 36 3F 74 56 F3 AC 19 D5 42 B0 6D FB BF 70 55 B8
 5E 14 73 48 AE 87 E5 5A 4D C2 E8 D1 99 D7 F6 98
 B4 04 C7 0A 18 D8 E8 73 F0 CD D9 ED E3 E0 37 B9
 B2 C6 6F 38 90 B1 C4 A8 C2 CB 32 E3 68 18 72 55
 C5 1B 85 27 D1 C7 B8 37 85 9D 72 04 3A 93 16 28
 CB 92 77 E8 2B F4 53 80 0A 81 55 38 7B 17 44 BD
 3B 7F E8 5C 23 47 ED 45 C4 DE 54 0E FC EB 9C 6A
 6B 1B 65 57 29 43 8E 71 FC 25 22 59 B2 23 A5 B9
 AB 39 16 C9 B3 7F 6A 94 2F 52 6C 12 E3 D1 CF F0
 79 3E 8E C3 67 4B 03 72 AE 89 9E C0 04 33 92 C2
 99 2F D2 15 51 AB B4 B2 5B 4F 17 1C EB 16 9E 32
 8A B1 4B 30 FC C3 BB 9D D4 6C DD 3A 0E 03 B2 9E
 F6 8E BC BF 97 0F 5D 8A 3D D9 D3 E0 ED 28 43 5C
 69 B8 7E 7B D8 90 8D 5A 94 0D 53 92 A6 04 D9 8E
 45 20 98 A0 8D 69 05 67 69 0F 79 F9 7C 1A AE 9E
 C1 6A 20 57 37 DA 63 DE 61 B9 0E D6 40 12 1C 3E
 E6 AB EE 23 AB 86 4D 7C D0 79 06 CB F6 13 A7 12
 BD 6F B9 29 4D FD F8 60 9B FE 7F 0F 07 9E F5 00
 98 12 2F 0D A7 59 E0 9A 32 B0 C9 25 CF F6 83 52
 DE 7F 9C 12 A2 B1 51 B4 20 22 66 D0 57 55 C8 E6
 CB FA 3C BC 40 9B 9D D0 03 B6 93 D9 9B 5F 42 13
 E2 86 B3 20 2A 81 50 20 C0 BE F2 A7 21 BA B3 38
 CE 3B 4D 07 47 CF 52 E0 02 88 93 7D A4 F8 3C CB
 32 A2 4E 60 8A 32 AD E5 45 EF AC ED 78 0B 2B 36
 4D 42 BE 78 B5 99 54 CA BB 0A AA D8 37 87 50 C9
 6E 37 DF F1 78 3B C9 39 2F E6 32 CA D3 C2 B4 B1
 A3 2E 8C 65 66 6C A8 DE 59 F9 98 9E 87 95 18 A5
 55 76 07 18 70 8D ED 8B 30 7B 84 CD 40 6E CB EB
 A7 B8 81 FD 84 D4 08 11 2C 17 68 15 BA 89 66 A4
 61 D6 FB B6 A7 BC 14 18 B4 00 50 48 72 27 B5 3A
 91 92 6D 4A E6 36 27 98 40 00 85 68 D5 E3 F3 1F
 E4 ED 8E 6C 3A B3 D4 42 4F C1 11 83 DA 85 8B F3
 67 DD E0 9D 45 0A 31 C1 CD 48 55 12 23 24 BC D1
 B5 57 DB 12 E3 4A 12 E7 A9 85 9D 97 CE 27 01 D4
 16 2C 2B 04 2A 97 A5 CC 98 99 AD 3E 80 73 EB 12
 8A E9 B4 16 38 21 85 8C 15 30 43 53 97 62 5D DC
 B4 1B EB 2B FF FC 3B 9D 37 49 4B 00 9F 12 DA C0
 E3 96 EB 64 C1 DA BB 2B 8D 45 BD 03 CD F5 B2 27
 65 12 80 DF 2E B8 A2 60 A4 AE 7E 31 A6 9A 9B 42
 B0 2F 7D 01 73 01 19 4C 85 D6 DC 11 A2 EB 78 E6
 E1 9E FC 58 A8 1D D3 76 DA A4 D8 0E 24 1F 14 CB
 A2 4A D1 68 C8 EA 10 EF BE F2 47 F2 E1 3B 62 E4
 66 0C 65 29 CE 82 09 A0 DC F3 C0 DB A2 BE 84 06
 85 C4 32 6A E3 77 2D C2 BA 2E 06 A5 9B 45 91 B6
 C8 9B 8A F2 1F C2 93 D0 69 EA E8 FC B2 3D 42 A7
 64 B6 E9 0C 65 2F 77 EE A9 A4 B3 A6 40 01 7A 49
 68 8C 1B E2 F2 9F 8B 3E F0 1E 63 35 82 58 A9 A9
 BF D3 A0 3C 31 56 BC 9F 0F AD 30 98 8B D4 0A B6
 EB 96 6C C6 23 69 FB 29 A9 D8 09 DC CD 8F 6D ED
 25 FC 52 14 C2 59 94 D3 B6 F2 DA AA 05 FB 57 18
 5A 0A 66 A3 3F 8F 49 6F DC 63 3E 15 13 D7 7F 6F
 CA DF FC 9D 58 CA 6F 73 63 40 2C 4F EA D5 A1 88
 39 53 16 B3 DD 54 17 1F 1E 0B 90 6A 5E 5E BF 72
 AB 8E DE D2 5D 8C A1 C7 BD D9 0A C2 C2 3F 1F 36
 53 A2 DE 6B 9A EC E6 F3 CF AD 13 55 F5 69 3C 63
 55 BC 4E 60 17 34 B2 28 96 6D EF C0 79 51 22 42
 89 67 E4 6A 87 A6 78 E6 C8 38 5A DC 0B EE 0A BB
 94 A9 D8 E4 CF B8 A5 95 A2 62 94 E8 72 DC 26 AD
 DA B3 B7 78 06 86 E3 13 F9 9B 43 F0 2F 22 9A 0C
 B5 23 E6 0B 1A A8 BB B1 76 CE 1D 5D 8A 0B C7 1E
 EB 92 A2 D4 50 07 CD A2 26 CF 3A 91 A1 2C 19 7E
 77 DF 57 74 47 12 31 D6 25 18 07 E8 4D 3F BD 9D
 C3 DD 27 41 18 0E 22 BD 18 3C A5 02 99 86 F6 A8
 78 79 C9 35 C7 5E 60 B2 96 D4 B2 2F 71 4E 9C A4
 E2 85 B4 FF 69 31 8E DB 68 1B FB 28 60 19 90 25
 97 D0 C3 9A 00 4D 27 9E 97 EB 05 D9 64 49 BD C6
 69 5B FC 3E EB 1C F6 17 56 B5 0A 51 65 14 82 01
 AC E2 5F 41 D1 74 69 5E 29 5B 3B 48 FC 5B A5 96
 BD 4B DA 76 30 76 5E 13 9A 00 CF 7D 6E 24 88 A6
 DC DC E7 37 02 91 B5 FC 4C 26 A3 49 DA 31 B3 A8
 BA C7 79 74 AB 56 C0 2E DD BE 07 4C D6 F7 24 32
 6B DE 71 9D B3 33 60 B3 9C FC 34 6E B2 EE 1B 6B
 16 66 1E 3E CF F4 EB 50 06 CB 1B 6E B1 18 20 F3
 3E DB B1 4B F6 1C 3C C0 23 4C 6E D4 CD AD B0 71
 EA 18 43 30 E1 C3 63 C4 D9 03 1F CA BC D5 E6 DA
 37 0B E5 CE 9C 86 EC 34 55 E6 31 C8 D8 B3 0C 11
 A9 98 3A 9A 95 AB C1 00 CF 2E 05 8B 1F E3 79 7B
 93 7B F0 A5 3C 1E 0F 13 07 23 0E 91 F8 3A 9A 95
 C1 4F 1D A9 AB 26 C4 DA D0 1D 66 B5 7A DE 3E 67
 C4 35 55 63 5A 8B B8 FE C8 CC 33 07 41 E0 1B BB
 82 23 93 C6 65 0B 5A C0 88 82 5F 4A C0 F6 47 A6
 D3 52 29 C3 31 5F 84 B4 31 D5 99 AD 04 62 3B 9B
 E3 A6 13 CC 3E BB DB B6 34 6F 6E 93 D1 D4 B1 40
 AF 44 49 64 06 F7 48 94 91 04 8F 13 95 02 8F A6
 72 53 05 8F C6 88 58 1C 64 DD 25 A7 67 EB 9E 02
 B1 BA C8 48 EB AD EA EC 55 C5 29 6C 51 9E 40 E6
 47 AA 7D D5 55 1F 3C 28 AE E5 20 C9 04 9C A5 21
 93 D0 60 FF 07 3A D0 16 9D E2 F2 CD 7E 43 58 7B
 77 8E 97 87 73 1A 29 EA C1 68 B1 CC 96 E2 76 25
 3C 8D C9 0C 72 25 15 1B B4 6E 55 DA EA 8E 95 0B
 21 DC EF E7 BC 25 2A FF 30 76 03 0B FE A2 BE FB
 DF A4 61 5C F0 94 80 24 84 81 87 F6 B2 2D B6 2D
 07 5B 83 89 3B 20 D3 47 54 07 30 0F D5 36 B9 2B
 00 C1 CB 76 8A DB 30 62 FA 70 E1 7F 20 A0 A5 DF
 61 F1 5C 10 D7 E6 C4 D1 EA 7E D1 F0 B0 2F E9 72
 3A 75 7A D9 E7 68 81 B0 38 78 B1 C5 1E 22 14 46
 D4 B3 7B 84 8B 2F 58 E3 47 83 96 47 D2 91 C0 B8
 CC 0E 73 F9 D6 5D 7E FF 5A 1B F1 10 54 4C E7 EC
 BB 22 94 F6 3D 42 23 BD 94 D3 AF 5E 1F 8D DD 15
 53 CC DD 17 D6 12 AD F9 4E CF FD 9F 37 86 38 6B
* End 4131010016 3386635515