* LTspice Encrypted File
* 
* This encrypted file has been supplied by a 3rd
* party vendor that does not wish to publicize
* the technology used to implement this library.
* 
* Permission is granted to use this file for
* simulations but not to reverse engineer its
* contents.
* 
* Begin:
 71 60 59 BE 9C 55 AC 47 D5 4C F6 7F 57 CA B7 8D
 7A 48 9F C7 D2 4B C5 A3 0C DE 1A 9D E3 B5 4E FD
 2D 30 98 DD AA 70 08 72 CB 6B 0B 87 ED 97 8E 24
 0C FA CF 58 77 C4 49 66 2C 28 D3 E9 8F 2D 13 05
 BE 6F 39 B4 D5 C9 FB 31 C7 87 9A 6E 67 B3 DC E5
 7B 2B EF 74 D5 2C 08 D5 BB 02 B3 88 9E 25 39 98
 1F D9 75 9F 25 C9 6F D0 F3 57 CD A1 58 A0 AA 21
 88 75 C2 06 53 8A 03 6B 3A D1 77 2F 3B 72 88 91
 13 4C 49 DB B5 80 43 00 4E F3 4B CA E0 5E 53 3A
 E4 22 93 2C 4F E4 B3 02 FC 9D 1B C9 65 5B A0 AC
 BD 5D C1 CF 00 86 53 6A 0B C5 6A 9E 87 F3 4D AB
 50 7E 44 55 AD 44 C2 88 08 58 89 4E FC 1C 4F 06
 1B D2 79 73 24 1F C2 62 F6 7C 5E 06 B9 2F DE B6
 F0 A3 78 45 95 13 16 EE 5A 1E 58 7F 97 59 B7 A4
 42 39 7E FC E6 BD 5D 19 54 EF DD 52 6E A0 5F D2
 DF 7B D2 11 7E A3 45 27 AF D2 15 A1 2E B8 DF 6B
 1C 44 6E F8 FC 35 5B 4E 3D FC F5 6D E0 56 6D A9
 F7 F8 D0 2E DF DB EB 54 9E 7C 1F B8 F3 FE 38 E3
 39 40 96 42 2A F4 15 9E 42 0D D3 74 FD 52 D0 8C
 C8 07 E3 C7 B1 6B B0 D6 C4 48 6B EE 95 9B 6C 57
 D9 9C DB D6 5F F6 33 9C 9B C0 98 07 38 CC D5 5D
 04 B9 F5 24 8C 6B F9 4B 99 65 70 CE FD D1 28 7C
 8F 12 4B 71 13 29 9D 19 C4 53 3F AB 7A 23 0A 74
 6C 8E B1 E1 88 A4 9F D7 0A 00 2B 87 BA 25 9A B5
 C3 32 48 82 27 BF C4 3F 7A 35 D8 5F BE 97 39 EC
 25 D3 03 19 8F F8 59 92 DF 53 BD 23 FC 9D 68 1A
 FF F6 49 F5 74 DD 14 10 52 8D 0C 8A 31 1C 15 C1
 B9 36 B7 B7 E3 0B 61 66 70 4F D0 85 D4 3B F5 42
 71 58 9A E8 EA B1 EC EA 81 4B 8F D2 9D AD D6 E9
 F6 F1 34 6F E6 23 20 34 01 46 BF 1D 40 EF D2 3C
 77 58 FA E9 F0 5F A5 4C 72 CA B7 2B 52 3F 7E 42
 9E 6C 22 BA BA 1E D3 B2 EE C1 02 5F F5 4E FB 18
 AE 12 76 02 C2 D5 B3 40 29 10 C5 6D ED E5 84 E5
 32 00 EC 6A B0 17 13 DF EB 55 FD E3 0C C8 07 AF
 FE FC E8 D7 91 F9 F5 64 E2 61 CE 63 BB 42 31 F1
 61 4F 58 F6 EF C7 E0 B8 65 14 EA B7 EB A3 80 2F
 E8 9C 1D 7E 91 F8 74 38 8D 52 2A B0 03 B7 42 BD
 A7 48 07 1B 77 39 26 6F DB 98 65 82 AA B2 21 EA
 90 15 26 68 1F BB CF B7 8A C6 97 ED 29 80 E4 8D
 15 E4 5D 12 6E 4B 1F AC 46 0F 54 1F 6E ED 13 58
 F1 A1 58 A0 03 2B 9C 44 4D 92 35 A3 ED CB F5 04
 B1 AD 93 BB 14 CB C0 81 F2 D9 F6 06 1C B4 3B F4
 3B C3 B2 D6 9C B0 08 C0 F0 A2 44 26 56 DE BD 2B
 8B 95 F2 08 2E 2C E1 92 66 A2 02 5C E0 69 04 A9
 FD A8 7C 70 8B FB AB 5D 7A A4 3D 2A AB A2 C2 74
 1C 40 8E 36 79 C5 6E D0 1F 5B 45 86 70 42 5A C8
 BD EE EC E0 70 1B 57 7C 36 41 3A E6 64 1A 1E 2C
 9D F6 19 05 3F 44 64 AF FA 02 15 36 CE 4C 46 D5
 99 9F 79 5F B3 DD 05 C8 EA 8D A8 3C 39 FA A9 CE
 AB CF 84 04 B5 15 66 D7 CF B5 FB 93 9B 55 9F D0
 2D 06 31 35 FE 27 FD A1 58 A3 13 6E 34 E5 F6 9E
 B4 CF C9 5A 60 04 65 D5 41 71 73 F4 BE 04 99 86
 DD 44 08 92 25 1F 6A 7E F6 12 3D 44 32 49 40 16
 2D 41 E3 80 2B 9A E4 52 51 A6 C6 4D 74 C7 F6 0E
 E7 12 F4 98 8B 99 E0 CF 84 07 BB 2A 5F 34 F3 DD
 B5 54 7B F9 59 0D 09 38 15 D4 40 D8 DF 04 59 1F
 36 52 BD 5D BF 3A FF F3 F5 98 E7 2E 1F 53 46 3B
 61 F2 FF 04 46 CC 6D 21 50 45 10 13 CA 5C 9C 88
 32 D1 5C ED 00 38 D5 A6 EC 42 BC 0C C2 80 A9 55
 20 EC 04 F5 4A 67 B3 46 63 05 6A E9 ED 88 9D A3
 33 DD 45 C6 69 66 6B BF 1F FE CE 9E EB C7 73 73
 31 A7 93 EA E6 CE 33 CC 5C C9 E9 2D 5D 1B 74 FB
 5E 79 D7 FB 45 6E B4 F6 2B 81 80 7E 5E A3 8E 0D
 FC A8 E3 BA 98 2D DA 24 BB 4B D1 39 97 22 8F 0D
 19 55 3B 55 A9 FE 29 CB 83 89 E3 97 F9 FE 3F AE
 ED 3D AC DE E5 0C 0E D7 2E 4A 36 F5 BF 5C 6F 4B
 0A B4 4A D8 34 D1 95 3D 06 07 AF EE E3 48 39 A0
 DF FE 5B A3 8A 5B 03 A3 8B 68 D3 94 25 B2 BF BB
 8C B7 60 F3 83 2B AC 6B 6E ED 12 AF 74 3F 1F D6
 EF 07 EE 56 79 54 F2 EB F3 4D 52 F6 C8 58 F3 04
 03 2F 2B EA 7E 42 92 A9 DF 78 FB 73 CA 61 1C 8B
 6B 3C A0 08 B4 B8 82 30 62 A7 30 1F 2D F4 20 C1
 62 A5 5F E9 F1 63 BA 04 B6 54 C5 FA 74 42 7F D6
 44 D2 0D 54 6A 68 F1 80 92 A6 3C 69 DD C5 B4 92
 40 FF 4C 5F D4 A8 B9 D3 BA 8A 6F 6B 77 00 1A F1
 54 4B 30 1A 15 BC 9A 75 6E 13 25 9A 95 2A BD C4
 E0 82 FB EA 67 2A 14 0E AA AF 87 37 51 9E BF 20
 F4 B9 92 F8 37 3B 70 4C 0D BB 4A 2C 43 90 9B 63
 E0 14 92 0D 7E 00 A7 1D 63 52 61 4B DE 30 BF D9
 EA 3F 7F D7 E0 1E 93 B6 92 A9 81 87 DE 3E F0 FB
 99 0D E2 10 3C 95 FC 89 BA DA 68 C8 6C 46 6D C8
 5E 54 A5 66 89 9A 4F A9 22 73 20 6E 2A 6D 21 02
 3E DF CB 94 08 8B 93 28 5B 8E 54 0F DF B5 4E 95
 21 DF 62 3C 9D B2 D0 10 51 3A 8A ED 04 B0 4A E1
 38 11 B8 C2 DA F3 26 74 6B 85 EC 7F 38 79 76 FD
 5B 58 6C 91 26 20 43 B2 82 48 22 6A E5 7C 88 A3
 63 08 6E FF 12 27 37 2F 0A 53 B7 BF B2 4C 06 17
 E4 26 47 E0 FE 56 6C 8D 9A 07 7D 6B D9 AA 00 43
 32 6C 07 57 BD 75 A2 06 CA 46 8F 14 6D F3 39 BE
 A0 DC 4B 15 17 66 A5 83 4A 03 5F 6D FA 64 17 73
 F9 9B 29 EB 18 66 66 1D 68 30 A2 22 DD 61 D0 C7
 A2 BA 18 F5 F7 BE 4A B3 95 83 C5 CB 02 9B 93 64
 EC 08 FD 8A 68 1D 29 5C 3E 4C 70 FA 05 13 02 6A
 7C B3 7C 97 49 0E 4E 9D F6 3B 03 2D 9F 7E ED 1B
 F0 5E 69 05 E4 04 D5 13 7C 8C 9B 1E 8D E8 0A 30
 A8 6B 95 28 1B 1F 10 32 8E F1 5A FA 3F C3 7A 0E
 EE 06 B0 52 02 9B 30 7A D7 D2 41 57 71 28 47 4B
 8C 26 D4 F5 3C 80 00 1F C9 78 42 98 D4 7E 6D C6
 16 AA FB 36 F0 73 2E BD 4F 85 9F F6 71 AC 28 FD
 79 0A A3 CA 84 D5 B0 3B 34 3F 5A 2E 37 52 30 EF
 69 33 B7 15 E0 75 A5 7F 0F 64 67 F3 05 4F 6C FB
 1B 26 74 00 AD 71 68 F9 98 39 44 55 69 CE AE 2D
 CE 62 50 33 51 E4 A5 98 94 CA 57 FD BF 7C 61 DB
 4E 66 A1 E6 C1 B1 DE AC 91 51 31 BA 35 00 77 B6
 BA BA 40 D8 0F 56 86 6C BC AC 51 A1 3B B9 FD AD
 1C 6C 84 8C FD 7F 52 38 50 E6 2D 38 6B B7 CB 9C
 EA 48 59 8F 9C FE BB D0 77 A5 15 A8 5C 0E F6 58
 52 04 FB 66 26 86 AA 51 9A 18 86 85 E3 00 AF 43
 CB F1 BD 1B 52 D5 65 FA 21 2A 57 E0 12 9B 7E 78
 C0 19 46 EF C7 09 D1 11 FD EF 01 5D 4A B7 72 54
 E6 91 9D 4A A4 C4 75 CB F6 58 C6 FC 06 56 6B 0D
 5E A3 D6 C3 76 0F 11 86 61 D7 7B BA AD 03 B3 4B
 E5 92 82 60 D6 16 94 89 2B C7 4F 10 97 4B C3 CC
 E1 49 13 AB 02 63 1E 87 49 84 4A 47 53 F2 E5 52
 ED A8 20 17 32 C7 2F DC E3 31 73 85 02 F7 4D 7C
 B2 0A 1C 93 AA 69 ED EA F8 CD 5C 9F A9 2B 66 1B
 58 A1 22 84 67 35 29 0C 5B 1B A3 44 37 92 70 4B
 F0 1C 0F 59 A8 4F 6C A2 53 5D 84 6F A6 69 50 E7
 D3 4A 97 25 63 98 A7 43 0E 61 7E 39 00 C2 F6 06
 F8 38 64 28 F7 55 A9 9A B4 0D BA 38 80 B2 8C AD
 25 99 D5 55 F4 B6 37 84 D9 11 0B ED BF C9 3B 91
 33 35 DC 7D 6F 70 D3 E5 04 48 01 A4 7E 13 3D 14
 7A 5B 5C EC 7F C7 92 89 55 0D 5E 5B BA 28 08 89
 C1 D5 D8 5F E4 6D 91 93 FF 6D C4 9A 31 50 21 EA
 E0 2D 28 9C 56 35 6F 4D 57 8F BB C7 99 41 FF DF
 59 03 A6 A4 6F 82 72 82 72 C9 27 10 83 73 F4 32
 CF 16 84 70 04 54 FA E8 13 7B 27 D5 4D B6 83 0A
 C9 6E C4 95 5E 98 C5 0A 48 4B AE CE 07 31 D6 07
 15 AB 1A C9 F6 AC 34 E8 46 E4 4E 35 52 3C 0E 6F
 42 50 24 48 49 CF 76 51 6F 59 72 BA 0A 8F 58 B0
 38 04 FC 2C B1 7D 68 4F 9D 8C 4D 72 1C CB 07 4D
 FD B8 E7 40 DB 6D F3 A2 74 35 82 9C 85 88 B6 87
 E3 61 AA B7 96 EC 4D E2 D0 23 86 E9 74 8F 39 71
 0C 1C 7C 75 C0 0B FD 4D A8 1F B9 46 A1 E4 18 F3
 D6 15 8D DD BF 32 99 07 B3 B4 68 24 72 77 D7 33
 B5 9E CD E8 F3 5B EE 3F D7 35 E4 EF 8C 00 88 15
 ED C8 A9 7F 01 A3 36 5A B7 67 14 27 5D 93 CF 07
 87 8F 92 D8 EA EC 80 5B 05 79 27 CB 24 13 39 7F
 8C 44 C5 B0 04 88 65 AC F3 88 F4 83 24 25 D8 30
 FF BB 69 B9 1E F7 47 0B 05 B2 2A 08 D0 F1 9E 02
 91 60 D5 D3 B7 AF DB 05 C7 76 24 75 32 76 05 60
 D8 43 D8 63 8B 46 06 08 C3 AB 97 98 E4 FB EE 97
 92 D6 E4 F0 61 6B 05 FA 9F 82 35 BF 2F FB D1 2A
 1C 03 ED 51 9D 3C 24 3A 66 E1 A1 25 08 ED 3E 04
 8C B6 F2 80 50 D4 64 A8 E9 1D 7F A7 DE 86 43 76
 B3 F7 91 E0 1D 81 4D D5 3B 93 44 62 AC B4 B2 8C
 FF 33 3B A0 58 ED 59 00 9C 26 2E 3A 2E 0B F1 E0
 FA 54 D5 04 71 EC F7 53 73 BC 58 49 F0 48 D6 2E
 36 9B 48 1F C9 F7 E4 3B 92 7C 7F 9E 69 F8 64 D7
 D7 46 88 51 1C 10 08 76 1C F3 41 76 83 54 D0 97
 1C 8D 30 3B 8B 2E 99 2B 53 08 E4 34 21 33 5B 5D
 CC 8B D2 FB 7B 28 62 A3 69 D1 04 40 F2 5A FD 4E
 5D D7 78 13 ED D4 6A D9 14 1E B1 2D 9E 3B 33 33
 8F 9D E8 3D 2B 23 4F 7A 2E 85 50 C5 7D 8C 6E B9
 1F DD 72 41 7B C1 D9 54 07 E9 A8 8C DE E9 5E 15
 84 17 E5 EB D6 73 53 AE 3C 96 A5 71 A2 50 F5 6F
 44 D3 18 5B 9A FD B3 D3 C5 3B 1B 75 62 E5 53 13
 E5 AC 16 27 45 02 01 14 CC B1 94 CC AB 5B D1 65
 64 E8 A7 A0 87 CD C2 09 BD AA EB FB AB EA 6D 51
 C1 C3 71 2E 50 23 27 62 88 47 FD 67 EB 7C 91 99
 66 D7 07 94 72 E7 65 54 CF F6 C8 2E F9 6B A9 3B
 99 F2 21 0B 53 50 2C F3 E1 74 30 39 FD A5 BD 3B
 D7 64 70 3C AA 57 FA 3E C2 E0 E4 65 82 8D 1C 73
 58 D8 03 90 69 CF CF 74 FE 4E 3D 65 3F 77 1A B0
 D7 E7 9C 9B 2D 3C 72 8C 0A 3E D5 67 CB B4 1D D2
 37 E0 BD D0 A8 68 46 34 84 2B EA C4 73 74 3B 8A
 45 AA 28 88 B9 88 21 B2 7D EA B8 1D F2 CD 67 BB
 25 87 23 41 AA 17 59 2E BB 77 E0 48 F5 1C 2B 83
 47 E0 19 18 12 CC AD 98 43 94 27 A3 5A 81 BB 7F
 A5 C7 0E 64 51 3D F7 07 F2 99 84 23 17 BB AF 08
 FE CB 25 88 DD 09 E9 6E 98 4F 7E EE D9 EF DD C5
 DC BB E7 DA 32 6F DA 38 50 56 20 61 EA 78 C7 5C
 54 5E 98 4B 94 A6 78 6D D5 9E 27 B1 40 AD C7 7D
* End 2173699180 2394035488