* LTspice Encrypted File
* 
* This encrypted file has been supplied by a 3rd
* party vendor that does not wish to publicize
* the technology used to implement this library.
* 
* Permission is granted to use this file for
* simulations but not to reverse engineer its
* contents.
* 
* Begin:
 33 48 C2 F4 D8 29 CB 30 7C FA 6E 42 F2 C4 24 48
 27 49 BB 91 61 D9 70 6F CF FC B2 B9 F4 C3 78 9F
 F6 F5 3F 73 93 D8 77 24 B5 8A BE 29 15 51 7D 34
 7A 1C 43 F1 3A EB 7A 11 B2 CF FA 2A A9 C4 3E 49
 3B 13 2C BE F4 48 E3 A0 EB 63 80 E3 E4 3D 53 1B
 6E 45 E6 70 E5 A1 46 E4 42 21 37 50 7F FF 05 03
 2D F3 FB AB D3 E1 5D 37 27 3D 23 BD DE 67 0E AE
 FE D5 AA 1A 17 11 CB A3 B5 87 BE AF 41 E9 75 A2
 59 69 04 DA F0 E5 5F 8B 95 E5 2F 0B 57 9A 6F 1F
 82 11 66 26 3E 65 50 AB 1A 2E A3 9E FD 05 C8 D9
 61 C8 06 B3 1F 29 A0 4D CD D5 E8 90 00 16 05 EC
 D4 D1 04 95 C2 E5 95 7F 92 77 5F B6 D2 0B 8D 73
 22 D0 65 10 D8 67 EC 7B 1D C7 06 53 C9 A5 65 14
 FC 5E C5 11 24 A9 99 29 15 E7 CE D3 2B 75 79 8F
 AB F4 B6 4E 1D 1F 41 F7 29 A2 CF BD E5 98 7C D6
 1C FE 47 AA 2D 0A F3 80 AD BA A2 34 F9 90 CA 01
 C1 77 48 D4 F0 57 03 30 6D A9 C6 78 7C 37 72 68
 C4 84 4D 43 6A DA 3D 6E 51 CB 3E 8C 9A E1 40 38
 E0 E1 94 D1 D9 32 2E 43 EB 9C 26 DF C3 99 B7 D8
 0D 13 41 7E 26 72 9A 7A 40 F0 43 D3 4C 60 C2 EA
 BB 23 0F FD 07 C7 8A AA FC 1C 92 58 5A 4A 4D 1C
 18 E1 85 D1 A4 A6 C6 04 C5 4E 26 03 A4 7B 59 48
 0C 47 A9 23 31 68 80 49 BA 9D 65 A1 84 92 95 C9
 D3 66 20 86 23 C0 54 17 EE DC 21 9F 25 C7 B5 89
 5C EB 32 EA 25 C2 CC C0 70 94 81 C0 A2 4C 76 7E
 56 0E FC 07 F5 06 C9 9D D4 FB 18 E2 22 20 A6 08
 0D 97 23 D3 27 FA 62 37 0D D1 CE B2 13 1E 91 5A
 02 95 98 B3 19 E9 18 40 E4 30 B2 FF AD EC 53 65
 DA E9 F7 D4 6C 5E 94 78 D6 35 B8 47 3B FB 39 45
 42 52 C9 C1 4D E6 69 88 F4 7E 48 FB 25 98 95 FE
 F0 C8 36 30 B3 8E CB 58 E9 AC AD 10 20 A6 69 89
 BB 92 EF 3E DA DA 0A 0A 34 E7 34 D3 1A 52 80 A3
 3A F4 25 61 D1 CC 6A 13 7B DD 8A FD 58 02 5E 56
 8D 52 50 7C 51 64 42 0B 03 28 CA EC F4 DC BD 03
 F3 0A F2 E3 1B 1E D1 B9 AF 49 81 F0 22 DF 03 A1
 48 F0 95 3E A0 A6 82 B7 01 20 9E 3F C6 22 C8 81
 19 05 FA 5A 0C F5 BC 0E F3 04 93 CE 74 20 A9 41
 BB FC 0B C8 4E F0 CE E1 4A 82 BC FD 1D A6 54 F6
 FF D7 E9 59 DC F8 C0 66 15 D5 4B B2 97 4C 6C 60
 45 22 3C 2D CB F5 CC 92 72 21 11 93 5E 24 A4 16
 39 1F 25 7D 03 48 81 ED 35 F4 C3 49 F7 B3 35 64
 77 33 E3 8B BD E1 EF CE 37 41 16 37 46 EB FE D2
 FC 71 A2 33 BD 67 9A 07 BD DF 3C D3 95 A5 12 F4
 A1 F5 93 6A 8C D9 DD C6 C3 8B 3A E6 4F C8 53 DD
 11 26 96 65 FE A1 0D 93 99 8A 98 54 FB 3C 8D 52
 92 CC 28 AD 86 48 70 8F C7 99 C5 B5 0B 55 D1 F9
 06 7B 16 3E EB 3F 6B 3B 25 9B BE 53 B9 9E FF 8C
 97 B7 D2 C9 FF 48 24 AF BB 74 E4 E4 FA F9 7B 70
 85 E1 D6 B5 52 B9 4F 67 7F 3B 38 12 E7 21 87 9D
 F6 D8 36 D3 EC BA C9 7F 79 F6 E5 DA C5 64 D2 F3
 33 E2 5A 55 BF C1 D5 14 70 03 F3 54 A8 CD 39 57
 4E F4 CC 53 02 D5 21 CC 71 AB A8 57 34 62 7A F6
 BC 3A FB E3 66 43 42 98 23 D7 05 3F 70 A4 7B 8E
 EB E0 6A A1 FE D0 6B 56 F4 40 2E 8A 87 AD DE B4
 1C 03 FA 05 78 6A 56 16 63 A3 EA A1 69 6B 9E E6
 4F 07 F3 CF AB 03 4E 35 2F 5D 42 A5 69 DD C1 E8
 0B 7B C5 55 14 BB 3B 2C BB F8 17 CA 4B 3E 03 61
 4A 67 8D 0B 36 87 DA 92 8F 7C 8D 49 0F FE 31 E7
 E8 56 EB 0F A2 02 66 27 F0 79 67 2A 4C 75 21 63
 27 84 97 25 A3 35 9E 31 E8 E8 6B 0A 52 B5 28 AD
 39 F4 35 9E BA F1 8F 80 AB B7 D1 82 3A 04 F3 F3
 3C A6 7B 63 56 DB FE F4 AD D4 E6 58 E2 FF 2A 25
 AE 16 2E C1 A9 39 9F 5E DC 23 F2 75 BC F6 69 3E
 E8 61 50 3A 75 E9 2E D3 F5 50 9A CC 42 37 96 C5
 40 71 20 D9 4A E6 13 B2 27 EA 85 D9 25 A2 F7 0A
 B2 B4 54 65 66 33 1E 88 7A A7 CF 63 A2 1B D0 A8
 EC 55 8E 0F 5F 70 36 1A E3 A7 0A F4 BD A8 B2 66
 DD 0E 87 1D 40 C4 2B 92 62 98 E6 12 01 3D 31 D2
 8C 6A AC E3 67 73 C1 44 1F 53 65 BE 46 D8 84 03
 46 02 36 9B 26 12 03 45 21 77 0E BE CF 55 2D F8
 DD 44 EA 11 72 75 F3 69 20 79 03 73 71 97 86 6A
 9C 38 0B 4E B9 CD A9 C0 78 B8 45 1C 5A D6 64 C9
 65 1F B1 84 DF E9 0E DF EC BC 5D 89 95 52 F1 E5
 06 63 62 B0 E9 F1 DC 62 2C 0E 94 1B 5B 95 1B F8
 17 BD AB 51 AA 17 A1 5E 48 17 75 FD 09 7F 12 26
 55 4D F1 C1 B2 8D AA 34 A4 C1 58 62 E0 F1 4E C0
 53 63 C5 4E 4C 3D 0F EF B2 EF 9C A8 AC 1B CC CC
 58 83 22 F5 5A ED 33 18 F5 39 30 AB 1D CE 79 A0
 81 03 F8 1D 1A 2B 63 9D 98 D4 C0 DC 2D 2E A6 D6
 EC 83 7A 5E E9 0D 80 3A 97 0C EE 98 4D 9B AB A3
 A4 86 AC E6 1C F8 83 19 D6 F7 93 2A 55 CD 7E 03
 54 2D 13 44 06 84 C4 21 EA A8 66 4F E4 50 A1 32
 6D D9 B7 9E 53 60 49 7F 72 55 94 C2 97 D7 61 03
 EF 1C 5A D1 24 40 D3 A0 99 7D 3F E6 58 38 29 F2
 51 08 C1 42 12 64 2D C7 BD 8A 8C A9 E6 6B DD 9E
 A5 01 8B 25 F2 92 26 CC 87 00 F9 C7 D9 3A 57 AE
 79 2A 0E 9E 38 D4 C3 51 77 48 05 98 F5 92 CD F9
 A6 10 E0 D9 F1 7A D8 CB FF 8D 29 BF 89 04 9C 23
 FB 82 30 BD EE 19 B2 70 3E 3B 80 9E EC F7 49 E0
 42 79 7B 18 E5 30 71 44 52 BF EA A1 5E 5A B5 AA
 6D 09 4A 00 EA 72 31 BD 31 6B F1 74 DF CC B0 3A
 E3 B8 D6 1C B5 0F F3 CF DA 38 2B EE 50 15 D8 1E
 C2 FA 4E CA 7A 06 03 BA A1 F7 E5 D7 5F F0 FA F9
 08 83 AF 45 BC 5A 33 DF 9D 44 5A 59 2B 09 B6 A7
 F9 78 E3 01 46 41 D4 CC 4C 75 15 DB 29 62 10 75
 26 A1 42 58 28 9C F5 AD 04 68 29 44 41 64 D5 6B
 0B 2E 17 65 80 67 D2 5B C6 A9 A0 63 4D B5 65 69
 5F 46 AC E3 26 42 D9 21 99 DA 89 E0 B0 6D E3 DB
 EA 4A BB 04 6B B8 3D 89 6E DE A2 DE 27 E5 A7 71
 3C 0A 16 38 05 87 78 7D D2 48 3B BA 32 E6 BC 0B
 E0 C1 2C 8D F8 58 64 8B F4 5B 27 0A 28 49 63 3A
 77 6D 86 69 95 C3 1B 0C 76 78 18 20 81 F4 63 03
 C7 A3 85 F6 6E E8 F6 55 F6 7F 90 25 B1 56 3C 8F
 6F 15 79 80 41 95 57 E5 8D 2C 9D DA EE 55 AC A0
 F7 80 E5 09 14 E9 BD EC 81 EA 51 A5 FA 43 CF A9
 0E 56 65 E3 00 42 1B EC D4 36 0B E0 46 D2 AB 5B
 0C E7 18 57 11 A5 89 8D 74 17 1C A9 B7 65 93 DD
 99 10 8A AE 7C 87 87 33 0F 17 BB 71 6B 9D 9B EA
 9B 7E 8B 87 C4 71 56 CB 88 DF F7 4E 0A 38 35 09
 DB B8 A3 64 94 D9 13 6A 1E 1B 56 80 EE 3D 79 A0
 FC 1F EA 89 5C 52 45 89 BE 24 57 3B 64 8D FF 00
 43 33 2F 7C AE D0 A0 24 61 B6 EA 5C D0 C4 0C 64
 41 F7 BA D0 68 01 3E F8 94 B1 4C 3A 96 67 69 1A
 7D B3 73 0E 2B 56 0D CE 31 8A FD D2 E5 A5 DE E7
 C4 FB 67 8F 8B F8 5F B4 68 BD 4F 0E 34 95 E4 DA
 D3 E8 A2 20 05 2D 65 02 0E 78 1E E4 80 CA 75 88
 B7 43 25 83 87 A8 C4 EA 62 15 A1 4D 86 4B A7 50
 77 2B 14 6B DE B5 CF 7A 46 28 8C 82 21 3C EF B2
 E0 16 BE FD 1E B8 6A 45 EF DA 4C CA 6D 8B AF 1D
 3E 35 DE D2 00 5A 14 C3 FA 6C E5 6B A0 32 92 01
 57 9D FA 26 A6 13 75 BD EC 50 2A C0 95 98 C8 3F
 1F 5C 94 99 71 BB 5A 90 8C 82 90 2C 1A 45 22 FA
 81 B0 59 3A B6 40 C7 28 55 13 33 F7 15 1A B0 3F
 98 7A 9E 6C 23 F5 62 0E 07 DC 90 C5 01 6E F3 78
 FF B9 73 42 A6 C4 7F CE 70 04 25 A3 D9 58 16 2A
 D4 03 2E 21 84 71 3B A7 8D 88 F1 A5 84 AC AE A9
 45 A9 2E 9F 8A E5 90 1C 78 DC 1F 27 0F 73 48 1D
 50 36 36 F0 67 15 F1 83 80 88 4E 6C BF CB 85 7A
 76 21 89 91 8B 08 65 CB 9B 90 D9 B5 22 CD 76 FE
 27 60 B1 9D CF DA CB F3 ED 56 A2 BA 21 D3 EC 82
 CC 2B AC BA BF B4 E3 82 28 5F 9F 40 F4 AA 1B B3
 02 DA 4D 02 06 6B 01 E5 3A 17 1A A2 3A 06 33 C5
 40 46 86 68 09 7C 1A B4 97 60 E5 18 A0 6A E2 11
 96 34 45 8E A4 95 3E CC DB 44 54 FA DA 97 B9 E5
 04 F7 6A 56 09 BD 5B 81 93 59 E6 73 CA DF 00 F2
 8A AE F5 5B 31 AA 86 5A A0 F0 3F CF 3A A0 64 1E
 A6 2F A5 2A 35 9E 45 86 BF 55 6A D2 F6 01 E6 4A
 66 07 BF AA A1 A7 47 F5 25 D2 39 7E 1B C7 2B 36
 A0 92 7A 0A BF CF 25 21 AA FC C2 20 12 4A 2D A4
 96 B1 B6 CA 78 CA 70 80 49 7B 5A C3 18 A5 8D 4E
 60 4D B4 57 95 23 0B 90 23 8A C9 72 31 DF 1B 7E
 AE CE F5 13 89 B6 C1 31 78 A3 B7 72 6B DF 0F 7D
 AE BA 97 85 50 D3 47 B5 9C 91 59 95 F8 A1 34 1A
 A3 B8 BD 7F 79 5D FD 60 DC AF CA A2 89 42 80 FC
 BC 9E 3D 7F E3 75 EF CF 51 AE C8 E2 31 F5 49 25
 5F 3A 51 30 A6 1D B0 8C 6D AC FA FD 67 43 BE E4
 E2 61 CC 5A CC C8 7E 35 D6 17 63 B1 9D C7 D3 01
 49 AB 2F 3A C9 9A D0 58 36 7E 4B 89 35 C9 B1 A2
 5E 3E F7 E9 FD AC DA 18 CC F7 25 57 2F EA D4 84
 B2 B1 A2 42 22 2D 79 18 5F 12 9D C5 8C BF E6 D9
 19 57 5E A1 60 71 B9 71 02 21 D6 F6 67 06 7E 6F
 98 06 67 07 57 A3 22 36 29 C0 2D C0 63 EC 21 EE
 3B E0 1D 27 72 E5 59 BE 31 17 74 DC 0B B9 0C EE
 17 58 50 6D 31 2B C0 01 DE 0A 4C 90 F8 99 D8 E4
 8E CE 5B F8 77 2E 5D E1 10 01 82 37 6C F2 89 18
 AC 7D DF BD 9A 0C 14 4B B4 4F E1 DB 41 C3 43 71
 BA B7 BF E9 6B B6 A8 CE 8D D4 2F 7E A4 23 63 B4
 C4 C1 0A CE 66 02 69 AE 20 21 2F 5D 32 50 38 65
 2E F9 26 77 F4 73 73 98 8A DA E3 52 F4 A2 D6 FC
 14 A8 A3 44 8B 4D 80 82 58 78 0C 79 D6 FE B7 B3
 F3 76 51 C2 2A 23 97 2D AB 7D C1 8A 10 CF 86 B6
 90 C7 62 E5 A1 58 73 F6 CA 84 5F A0 70 09 A3 24
 F0 70 25 86 9C A7 5F 4F DE F7 1B A1 A5 84 6B 9E
 4A 9D 6C 37 F2 6D 63 30 7F 6B 41 06 AB D6 9E 1B
 07 A1 38 54 2B F1 7E 0A 67 F5 C5 3D 21 C8 CE 17
 DB 36 79 DC 4B 3E E6 41 DF A9 D1 73 84 2A 15 D7
 AC 1D 89 29 55 A9 C3 85 12 23 88 99 2B D7 56 20
 56 7C DA F8 67 F6 AD 47 3F 76 33 93 D8 61 7F F5
 8A 4F 86 1F 54 79 31 D4 FD 0A E0 F3 E5 F7 D4 75
 08 68 8B B7 04 31 C5 01 0F 00 83 13 16 C4 98 AC
* End 4115608275 1140454026