Circuit: * C:\Users\Giovani\Documents\LTspiceXVII\examples\Educational\Draft1.asc

Direct Newton iteration for .op point succeeded.
Semiconductor Device Operating Points:
                        --- Diodes ---
Name:      d1
Model:      d
Id:      2.00e-02
Vd:      7.31e-01
Req:     2.27e+00
CAP:     8.83e-09



vd: v(vd)=0.02 at 0.02


Date: Wed Jan 29 19:19:59 2020
Total elapsed time: 0.069 seconds.

tnom = 27
temp = 27
method = trap
totiter = 4
traniter = 0
tranpoints = 0
accept = 0
rejected = 0
matrix size = 2
fillins = 0
solver = Normal
Matrix Compiler1: 54 bytes object code size
Matrix Compiler2: 116 bytes object code size
