* LTspice Encrypted File
* 
* This encrypted file has been supplied by a 3rd
* party vendor that does not wish to publicize
* the technology used to implement this library.
* 
* Permission is granted to use this file for
* simulations but not to reverse engineer its
* contents.
* 
* Begin:
 18 DD EE BB 4C 1C 3D D1 C2 D8 A1 9F 11 30 7F 13
 FD 57 CA 18 88 FE 4E 75 C1 30 62 E6 D4 A6 B7 67
 6B A8 C9 78 1D 0F 19 DA 65 4B A4 46 E5 FA B5 66
 B0 F3 CF A6 A8 2B CC 0F 7D 2D FB EC 70 C4 CB 01
 22 EA D0 19 06 24 E1 1D 82 2B EF 2F 0E 39 23 9C
 A7 86 07 EA F7 18 CE 63 B7 40 8A E5 F5 E9 3D 77
 E3 5A 6B 1B A7 91 9B 02 3E 2F CF E3 96 D6 32 B2
 C1 91 E7 ED C5 16 07 83 50 F7 F1 E9 E3 B5 87 50
 12 75 4C 06 34 15 FA C2 D0 32 1C 50 96 61 DC 02
 90 70 59 50 BF 4C 8E 6A E0 00 9C DE 8F F6 29 AF
 5C B3 4B 47 57 FC BE 13 8D FE A8 89 DA EE B7 A4
 1E A3 DC 93 08 AA 03 EA 50 37 50 B1 CF 7D 7D 74
 D6 25 84 01 2E 6A A8 B2 CA 81 B3 3E AC 12 AC 0E
 02 59 21 5E BE D0 FE CF 0B 42 68 DE 48 70 75 E3
 3B 44 B2 60 40 41 74 AB 77 75 72 9E 31 CF AD 7A
 3E 9F CD 81 F5 38 C5 20 51 DB 2C F1 B4 AB D2 5C
 47 05 36 36 57 5C 13 0C 22 F4 04 9C 01 FE A0 B4
 A8 02 E7 76 79 1C 09 57 2A B4 AD BF 14 8D 66 EE
 5F DC EB 1C 50 91 60 E6 DC 0E 91 08 E7 5D E6 51
 86 65 33 B4 72 76 F6 CF 87 37 59 18 5D D3 88 00
 4D 2E B9 9C 4D 62 85 63 1F EC BF F3 6E D3 5C CA
 5A 10 2F C3 23 30 90 89 AB E2 12 B3 95 B4 7D 7C
 6A E1 AB 63 97 CF 99 60 8D 70 E2 BC A8 53 96 B9
 1C 19 07 78 7F AC 14 68 C4 7D 72 43 41 7F 98 A0
 E8 DF CB BF 1D 2C 66 81 32 4A 96 9D B6 62 47 1B
 E6 73 B7 27 61 1A 96 25 EB 46 04 71 3A 78 AC A6
 83 51 DC 7A AE 48 AE 82 F0 2D DF 5A B4 FD 3D FE
 92 40 BE 93 AD 86 DB 1E A5 DC 0A A4 A4 7C 49 CE
 C3 64 CD 2D 32 AA 49 BB 54 08 C1 BE 93 9B DA 77
 7D 4F 57 44 6A B0 C5 B3 DB 07 C4 D2 CD CF 8E BF
 F9 CE BF 49 F2 94 8B 56 5A D5 F1 EC 3E 89 7F 8F
 C7 53 83 FF 20 6A 53 D9 6A 43 76 B7 4F 68 E2 8C
 7A 22 F8 2F 21 A7 9F 3B 9F 03 50 03 72 1D BC 70
 CD 1C B5 F1 C9 2E EB BF 03 DC 10 30 A2 60 CE 7C
 E3 D8 73 B1 71 9B 1D 95 19 34 3D CD B6 33 CF 2E
 A0 8C E0 FA F8 21 4E 4E 8A B5 B5 80 FF 6B D0 FE
 40 02 B2 87 45 37 6C DD F3 37 5C 9B EF 86 EA 69
 88 D7 D4 21 57 F3 2E 22 4F AF FA 54 28 F4 8E B9
 0C 50 E5 C7 ED 26 6D FB 91 DF 63 42 12 02 00 F9
 9A 14 0B 90 E7 5B 62 97 E5 85 5E F0 21 6B 26 11
 F4 3D 20 D3 6F 7B 35 DC 28 07 30 4C B7 D8 84 2A
 8E DC 7A 19 34 84 1B 40 AE E2 CF 9C A5 61 DB 6E
 6F D4 D1 5A 72 41 10 CE DB 37 01 68 FB 85 1A 4F
 FE AF 60 72 30 62 78 AB E0 F0 A8 76 A0 5F 56 85
 88 15 95 98 E4 49 48 25 1C C3 47 CA 46 64 C7 E9
 4F 91 79 A6 EA FA CA 23 E3 B5 B6 18 AE BF 44 A5
 10 44 A0 7C 31 35 AE A8 59 49 4A A8 27 05 72 CE
 08 52 6E 08 AC E0 24 F6 6A 09 B7 D5 B0 C9 4B 3F
 43 1D 38 F9 F7 E5 08 B3 D2 AE 05 8E 86 0D 8D 72
 5E B6 94 C6 9F 12 F1 BD 4C 0E 88 E8 0A 9A 81 EC
 23 DA BB EE B1 E6 CC 32 0C 39 26 00 50 F9 4B F2
 78 DC 2D 63 77 FF D5 32 3D 70 55 A7 69 72 1E AF
 ED C1 F1 23 F0 E3 B6 FC 0D DB 50 91 0D 33 BA E3
 69 00 A0 32 85 53 D4 FE 9E 04 27 FD DC 49 79 AC
 23 68 8A 4C B3 5B 8F CC 0F 66 98 84 E2 BB 2F DC
 10 10 F8 EA A6 F3 6F 15 D0 BA 27 8E D8 05 3E D6
 A6 46 EE C5 35 8A 5F 39 8A 9E FC C4 2F 15 FF D7
 82 D4 6E BB B0 0D 1F 39 AD 44 8F 0E BA B7 D7 B8
 AF 85 63 A9 F2 3C 82 79 D4 A9 42 38 BC 53 B7 79
 00 0C D8 1D FA 7D 18 3B AF DF C8 25 0F 98 55 BB
 A6 BC 30 DA D6 6C 61 88 34 71 5A C3 F1 03 C8 03
 2F B1 0C DD 17 0E AF BA CC 0C 11 17 E5 2E DA D8
 4C C7 3A 1D A2 8E 2A B3 52 6F 7A 89 1F 10 35 FD
 89 EF 1A 2A 18 08 BE 5E 61 BB 2F 61 7A 81 28 D8
 CD 2C 96 C1 9E 31 A8 7D A6 AB 2C 90 15 F3 BC AB
 4B 6D 32 C5 B2 26 22 B9 EB 75 5F 6E A9 BF 3B 68
 96 8C 49 98 02 32 9A 8A 0E D8 11 5B B4 0E EF F1
 17 FE A8 1D 1F 03 B3 0E 71 D1 1E 45 7B 8D 46 70
 34 E4 4C 56 5A 0B EE F8 4D 91 3F 46 B7 84 74 15
 8C F9 99 74 25 C9 D5 2A 99 2D 8C 98 41 97 EC CE
 7A FD 77 00 0D AE 6D 1F 44 EF B6 47 05 83 BA CC
 07 31 B5 7F 74 5B 96 A7 12 CB 69 69 1A 10 38 15
 AE 9E 58 13 B0 FB 08 65 6D 0E 35 38 87 F1 01 FD
 57 AD D4 63 CB 36 65 BB AF 36 AB 2E 8B CF 69 66
 A2 BE 00 9A 1E C1 85 C2 68 2F 05 51 1E F6 F1 6F
 20 92 8D B2 9A 7C 96 DE 2A 72 23 22 AE A7 BB B6
 E9 5F 01 10 EC 99 8B 79 72 1F 9A 32 4A F9 BE 8B
 69 5D F9 F8 F0 17 25 D2 7F 7A D0 6A 64 B3 35 D5
 C0 C2 42 02 EF 1E CD E5 96 16 D6 1C BA BD B6 7A
 70 77 A4 B4 59 D5 B3 46 2A 76 53 56 90 E1 87 EF
 1D 76 C7 B3 C8 2A EF 6E 6D 9E EC 93 AE 91 76 F2
 34 CA B6 97 8A 81 70 93 81 22 D5 0C 7E 9E 16 47
 B8 BB E9 BE 3B 8E 54 F9 0C F7 16 12 CF 91 2B A3
 DE 37 F6 89 57 00 72 23 DE 0E 87 0D 79 E3 01 3E
 8C F4 BC CF 10 A9 D0 3C 47 B3 3B 8B 67 F8 09 F0
 C0 D0 A7 6C FD 7B A5 59 83 4F D5 CD FC 28 62 D8
 22 3F 3A CA FF 6C CB E6 B4 F1 1E 91 EF 17 B4 A9
 CD 94 41 46 D0 37 8D 10 33 D4 EA D8 B7 63 AD 55
 F4 47 25 AC 9D BF 92 1B 61 B7 0A C0 F2 F6 00 52
 BB 9B A6 5C 34 17 E9 8B 57 95 5C B4 FA 1C ED D1
 1B E3 2E 9E 83 0E 20 F7 18 30 87 E5 AE F9 94 36
 40 0B 5D 2E 40 9C B8 9D 57 F7 3B 53 F0 2F 1E 84
 E1 12 4E 06 E2 77 75 52 28 8D FC 06 8D 9C 6B 97
 AB 8A D9 07 C6 C0 44 A4 EB CA 7C 1F 22 9C 22 AF
 86 33 97 51 86 C3 34 4B 71 8E 53 15 11 9A FE 74
 C6 89 93 8A C2 2C 85 89 89 8B 13 82 3E C7 36 43
 41 AF 1C B7 D9 37 F3 30 93 65 1F 9E AA 1A 5A 29
 FA A8 9A B5 74 13 BE 84 88 B4 29 E6 28 76 9A 44
 EE A1 5E D1 60 D6 E6 03 04 10 13 58 2C C0 96 5E
 D1 40 54 37 35 B4 75 A1 36 05 32 17 8A 67 06 61
 7B 65 22 EB A3 CD B0 66 D2 69 C8 C5 CA 3C 20 C4
 B8 18 4E 52 05 00 64 BC 5C 35 27 CE A5 1F 92 58
 6B 46 38 4C 74 11 5B 99 E2 3C 5B 0B 14 BD 03 94
 56 DF 84 0F 1A CD 6D 4F 38 8F B6 52 1C 08 AE 8D
 92 45 36 E5 69 06 B9 63 F5 F7 2F AA 5A 5A 69 A3
 0F 4B 0F B3 F9 82 93 EC CA 42 F7 EE 2A FE 14 7E
 DD CC D9 F9 0E 10 99 46 14 77 45 0E 9D 14 99 49
 88 F3 CB B6 99 82 7A 69 38 48 01 05 6A 5E C6 5F
 7C 26 63 9C 54 54 47 EE 45 E5 55 22 8D 14 0A 06
 2C 66 D9 68 4D 32 B6 C5 E9 9C FD 1D 37 7D 5A 30
 FE CD 0F D4 A2 7B D5 F8 CC F7 21 B8 C4 9A 78 E5
 AF D5 F7 BE BB 39 40 B1 13 EF 19 CF B5 07 6D 10
 34 30 B4 F5 49 B6 A9 AC 18 2D 94 03 05 A8 6B E7
 3D CA 9B 54 CF 3D 07 7F CC 6A E6 D7 83 53 09 49
 47 D5 4B D8 15 4D D5 66 37 8B DC C5 4A 99 D8 1C
 04 3E 68 91 1C 55 36 B5 AD A0 48 EC 81 56 E4 7A
 DD 80 4A 07 28 DE 28 93 A9 3F 16 CF 73 B8 49 7E
 A0 5A 97 4C 00 3E 1D EF BB 7E FF BD 8F 04 A3 5A
 B6 31 B9 9F 31 82 D4 8E 66 78 22 9B D6 91 10 C5
 3E C5 05 94 56 FE 43 E7 E2 FB D7 0C 06 92 F7 0B
 3D 00 B4 F3 B3 61 F6 6C 6A 95 91 8B CE ED 0B CF
 43 72 41 34 CA A3 C7 8B 76 95 6B 86 31 2F 74 33
 36 7A 10 D1 18 62 44 21 50 B4 D2 56 F8 BB 88 C9
 68 91 23 0B 10 E0 9B 61 72 75 6A 05 4A 65 2D 6F
 B7 38 D1 C8 CE 30 CE CE EB B3 5A 0E F0 03 E3 E1
 F5 99 77 F0 15 70 E4 8A D3 0D 7D 9C D9 4F 8E 26
 F8 DE 38 AF 2F 09 71 D7 9F 55 F9 AF 7C C9 C8 C2
 67 C7 89 BF 3C 9F EE AF 92 0A 70 DA EE A4 B8 C2
 76 F2 12 C8 2E 2D 01 FF 97 DD 27 9E D0 37 FD 8F
 D6 99 9E 5E D0 F5 E6 D0 0F F4 F7 1C 6D 49 A6 3F
 1F F9 56 6B 00 42 96 75 D5 23 20 CC 07 99 D9 94
 84 CE 43 02 68 E2 B1 5D 89 44 18 5D 2F F6 6F 54
 15 7D 81 DC BD 5B E2 78 B1 12 A6 50 94 9B 62 BA
 0B E7 80 33 5F DA 2C 18 B1 F2 C2 93 47 27 93 D4
 66 B0 6E C1 CC F6 5A 81 65 9A CC F6 99 37 32 A5
 99 E7 BB 9D 03 48 61 72 8F 7A 32 1B 26 3D CD 6C
 20 12 56 7E C9 AD 13 10 5C 9F CE 05 83 83 18 C9
 49 74 51 97 BA B3 EB 0A E2 65 6C AD C6 9C 01 C4
 71 5C 63 7F 65 E9 05 79 4D D7 71 37 9C 01 D4 6C
 AD 66 B5 31 AE 23 82 AF 8C 97 D5 6D C0 B0 1E 55
 67 07 92 55 B0 96 86 51 21 54 2B E4 D1 FE 06 65
 67 E2 3A 26 01 76 87 52 7D C3 94 D8 A0 66 DB B2
 D7 E0 C2 D9 FF 8E BA 21 54 39 9A CF 35 E7 FE 7D
 CD 8A 7B 69 EB 66 B7 9D 7D 65 9E BA F3 33 D2 F7
 E6 36 58 57 C8 4C 4B 50 F1 4B AC 46 E6 5D 3A 0F
 EE 05 61 A9 78 43 3A 6B CE B0 A9 2A 62 0C 2E 34
 2C 75 1C 8F 56 86 C8 60 D2 16 16 73 CE E5 10 56
 E4 AE B9 C0 D0 22 26 47 0F 6F 7A 4A 83 5F CE 90
 D5 B1 91 FF 97 31 A9 B1 94 F6 0E 2A 97 3C F9 0B
 42 A4 E7 B5 19 48 2C 99 A7 37 1B FE 88 F2 B3 39
 07 8E 6A AC 36 8C 09 3B E1 3D A0 81 77 36 05 73
 0C 10 6A E5 81 21 A5 AB 18 E0 92 30 07 3B CA CD
 CF 66 62 8D A3 C1 9F 37 27 A7 94 26 52 F1 0C 81
 D3 95 95 E6 85 AF 25 EF 51 0A 3F 6F 95 59 B5 5D
 22 2B CA DE 45 CA 4F 27 36 06 7C E8 D4 A6 F0 C3
 5B 42 16 6C 97 26 4E 45 8A AE 63 6F 60 95 F7 B1
 CE 55 BD 87 00 CD 1B 87 14 FC DD 17 88 D4 A2 A3
 0D 19 A6 F8 42 1E 25 4A BB 98 C1 A3 F7 99 AB 26
 B3 45 A2 D4 B1 E5 E9 D6 F1 D3 90 FB 60 E5 1F D1
 53 B8 82 90 AB F3 9C 0A 56 CC 2D 21 4E 8A 73 CE
 08 6C A7 E9 21 11 EA 56 AD 12 67 CA CF 4D 46 37
 1B 33 E1 FB E2 80 F3 7E BA 7B D0 A8 7B D9 0D 9B
 A9 A5 84 B5 A6 5B 7D A5 B4 7A C4 64 D6 17 97 A3
 6A A8 B8 86 1F 05 F2 1F 58 4C 1B DD 98 8B 92 EE
 A6 03 C0 C4 84 EC F1 07 4B 62 92 AD AF A4 2D D1
 05 5C 33 29 87 32 C4 B2 2C 3B 10 8B 0F AA 58 E5
 F6 2C BF 9D 37 50 43 A6 44 70 7D DF 84 0B EA 91
 1D 22 07 A7 23 47 4E 60 46 95 A7 0E 4A C2 80 F7
 10 A1 D9 DA 4F 00 0B 5C A2 16 66 68 62 29 03 65
 F2 DE FC E0 B1 C8 93 F2 34 9E 51 7E 40 AB 74 62
 B5 84 74 7A 3B 09 85 50 D3 E0 76 50 B1 02 0B D6
 37 2D 00 72 30 4B C5 08 A7 FA F5 9D F3 E3 76 EC
 D3 F4 7D 8B 87 56 9D 3B 48 36 F2 FA A3 70 FB 31
 A6 A7 11 79 46 FD 03 59 18 AC D8 5F 57 5A 21 B0
 BA E2 43 C0 E6 AD 42 F9 5E 33 74 1B 07 48 2D 69
 D6 2A 8A C3 54 DE 93 80 79 3A 12 B6 B6 8A 0E 63
 1B 18 5E C8 C6 24 2D A0 F4 C4 A4 1D CF 4A C9 E8
 99 19 28 11 D6 79 75 D4 8F 44 44 AE 23 6B 11 C1
 35 B3 C1 1C 30 3A 40 F7 5A 21 6E F3 ED 42 D4 7E
 BD 29 DD 02 2B 9B 16 30 63 A0 46 1D 95 95 8B 1B
 BF 8F AE 0C 9B 07 7B 31 EA D4 26 EA E1 A3 5E 89
 12 BD B9 F3 8A BA 3D 64 79 CC 0F E0 7F 2E 0E 8E
 7C BC 45 B8 53 6B E1 F0 F5 B1 9C C9 B5 14 13 63
 BD 79 8B A6 C0 80 E6 5C 67 1E DC 0C E7 47 7D 93
 80 11 35 38 CC E2 4F D0 D9 2F 87 E4 C3 06 6D 09
 FC 70 38 0F 75 96 06 BB 50 EA 4D 62 A4 7A 27 34
 4E 4D 6C A9 84 91 A6 5A 7C 18 10 E9 13 8F E4 96
 69 64 5E 55 54 A8 8C 4E 9E E4 26 73 A7 C9 BF F7
 6B 14 EB AE 28 3F AC 42 B3 66 44 CB CE 40 89 CD
 81 9E 99 2E CD 92 34 75 F9 CB 3E 90 4C F1 15 D0
 8A EE 13 29 36 18 41 D0 8C 6A CB B7 04 AD 26 FE
 78 F3 E2 5F 14 E9 8E DC 48 1A 72 9F E8 AC C1 0E
 86 90 F3 1A 30 87 AE 6F 01 11 90 F5 33 A5 06 74
 9E CD 9E 08 BF EA DC 19 EC 53 9A 27 48 FE 34 C6
 14 70 DE 61 84 DC 1F 2D 20 F6 83 88 19 E6 B0 E6
 99 39 9A A4 9F EF EB 92 16 35 C9 10 D6 69 39 D0
 2C DD 45 10 48 7E 53 66 E3 09 C3 6D 2A A6 21 AA
 1C 8C 25 D7 60 3B 7F BE 58 D8 FF 07 2C 4F 16 5F
 C7 A3 24 D0 8D 57 19 01 0C A8 56 86 25 41 84 08
 92 8D 10 D3 F9 50 A5 CE 97 24 97 20 0B E6 D1 C9
 77 B0 22 AD B2 EA 89 E2 23 B1 66 0A 2C D1 D7 14
 AA 3C F6 BA 2F 92 31 CE 79 1F DB AC B7 30 DF FC
 F3 D1 58 F4 B7 B5 4B A8 F4 4E BA D3 08 06 22 0D
 F5 5C 6F C2 44 BC 5D 5A C8 49 64 54 33 1D 8F 3D
 86 4E A0 8A E3 0F 74 0E 61 A7 91 C9 93 3A CD 41
 71 80 DA E7 5D 1D 4F B8 3C 25 FC 0F 55 EF BF A9
 B9 82 63 BC 87 3D EA 13 E6 94 F7 E0 71 CD 3B B0
 7C 2F B6 D5 DD 2F E2 F8 98 68 0B 39 6B 1C A6 16
 35 82 44 26 77 0B 08 8F 9D CB 5D 05 93 45 28 59
 97 84 AF 07 A9 63 22 3D 88 E9 5B 00 36 C1 93 5D
 99 07 4F 77 2D C1 38 7A 0B 0A 79 2C 2C 72 56 23
 CD 90 87 A9 09 3E AF E5 8A FA 19 EE 38 EF 4D 67
 C7 79 33 F9 DF 0D 59 C6 01 EB 8A 4C E9 46 9A 00
 57 3D B6 69 65 89 87 41 20 AE 89 21 BA C5 77 F6
 47 9A 7B 1F 47 4E 1C C5 6A 8D F8 4F 95 87 78 DD
 CB 61 83 FB 72 86 60 70 03 65 AC E1 1F 5A 20 76
 03 35 DC 1A 00 65 78 D5 0C B0 2A 71 E3 14 BA 39
 35 1B DE 35 25 24 12 79 2E 76 90 4D 13 57 CA F6
 18 26 D0 75 81 9C F9 6F 6A 5B B5 57 9C 28 66 F1
 F5 EB FF F9 86 0D 4D CB B1 30 78 1D E4 BD 29 4D
 56 18 54 E0 55 9D 8C A0 61 D2 8A 67 D8 8E 7D D7
 FD CE BD 2C 5F 14 76 D3 9A C8 7A 56 DF 22 C5 39
 F7 F4 F2 28 FA BE 21 44 15 84 29 97 84 42 CC 16
 39 5D A5 8D 98 1E 7F 43 2D E4 B6 9A 5B 3E F2 FD
 AF 9E 0B 33 EA 0B F3 97 4F 63 23 4A 40 C5 5B 3C
 00 4E 3F DA 25 CB AE CB 31 91 5D D9 92 0F DD 57
 54 D4 4C FA 60 31 F0 B2 18 46 06 51 38 37 5D B2
 88 19 E5 55 DA DE 5E 90 0F 00 E7 6C A3 D2 2D 48
 65 CF 4F 30 0C 20 14 36 98 92 E6 10 03 04 F6 A9
 09 7D 6B FB 10 7A B0 79 1E 02 37 98 4B B5 F7 A2
 B2 CB 52 7B 75 CC 4F 17 D7 7A B1 B0 8F E8 7B FD
 C4 25 DA 76 5F FE 4B 4C C4 DB 1C 0E 30 D5 1F EB
 08 2C D8 51 C3 E3 5E 71 47 23 9E D4 65 79 65 AC
 DA 7C A7 47 10 A0 B4 53 E5 26 2F F5 1F F5 9C F6
 68 EA 79 9C 20 BA 5F DA 7C 59 D5 8F D8 22 8A F1
 CD 1B AA E3 F0 DD C2 BE FF 5C 28 E1 EE DE 08 20
 CC DA C2 BE EE FE 63 09 34 D5 7B 8B 5C 86 38 C6
 EC 56 41 BF 7F C1 F7 BD 14 06 8E 20 DD 82 0F B3
 02 FC E3 32 42 B5 47 72 03 A0 5A 71 A8 DF 7F 92
 C8 A4 09 D9 A9 5B 1A C6 6E 3F 3F 46 5D 62 06 58
 85 6D D8 21 39 4E 80 9B 82 C0 AA 57 F7 2E 53 88
 14 1B B4 95 5D 4A D5 1B 2B D4 EB 30 BA 5A 11 AC
 3A C5 3E DF 55 60 7D E5 41 68 FB FC AA 7C 89 64
 D4 C2 27 49 C0 C2 90 1F 48 BF E5 F6 FB EA 07 2E
 1D 54 9B 41 AD 2C 3F 35 48 E3 F6 EA 9D 98 EB D4
 32 13 11 1A BF 4F 70 0E B1 FF 6A B7 CD 14 6C A1
 AD 16 91 57 A6 8D 84 55 6A D4 F8 65 1C CB 33 48
 5B 56 D8 0A 59 9D 24 32 85 78 64 89 AE 89 BB C9
 37 F5 14 E6 CC 3D DF FB 6B 41 8D C1 36 AC 31 F0
 AB 62 03 55 3B 6D B4 8E 32 EF 5A 18 31 E4 62 D7
 63 E8 55 AE 5E 12 24 B5 66 40 77 D5 E4 4B BD 5D
 68 10 1E AD FA ED 13 D0 36 7F 42 E8 15 97 64 E4
 04 32 0E 3B AC E9 AA 89 8E AD 1A 1C 7F B0 6A 43
 38 1E BD C4 41 3F C9 A7 03 D6 E0 F5 9E 3C E8 FB
 11 81 4D FA E0 60 D7 6B 72 7B 69 BB D6 51 31 80
 43 D5 2E 66 83 20 2E 70 0A 0E 82 F0 DC 7A 29 E4
 A6 DA CF 87 15 AB 08 6F 87 87 11 44 9D F7 B2 95
 36 CA BF 8C E2 D2 9B B6 5D FC A0 17 14 74 7A 40
 2D E5 DA 71 10 82 41 72 D2 8F 56 F5 DB 10 9F 2F
 87 50 AD 53 B0 E3 9F 97 39 CE 5E F8 34 C8 3A C6
 E3 85 07 18 0E 06 4D 9C 8D EC 14 C8 8E 33 D1 41
 58 7B 61 78 56 DD B9 2C 21 FB E2 65 10 85 E3 B8
 CE EE 89 DC 64 95 6A AB 51 D3 C0 B3 CF FB 38 17
 C7 F1 50 38 F4 EA FB A1 E9 6E AE 06 2B F5 E3 4A
 FD 88 EC F8 8D C4 26 42 9D 46 B3 F1 AD 09 BE 21
 02 9C 69 80 4C 31 D7 CC 75 FB 06 45 8A 5B C0 54
 90 44 3E 21 1C 37 EB 8B 5D E7 E6 EF 7F 67 0F B7
 AD A1 52 CB 54 D7 EE 37 31 B8 56 63 0B EC EA CB
 B5 ED D4 76 1A B3 E5 FA A8 0A 5A 83 E8 23 BD D5
 90 C3 06 D4 F7 BE 44 D4 93 8F 88 D3 A0 2E 89 77
 48 6F CC 50 FD 19 90 17 FF 74 DA 01 59 02 82 D9
 C1 FF 00 4D 01 22 ED 12 10 AF 7B C7 F1 75 93 36
 4F 5C 25 9C AC B1 C1 65 70 DB 9D 29 A9 16 A2 E1
 40 AF F3 95 58 97 BC 03 DA 74 88 B0 C8 C1 80 EE
 A7 8B 6B EA 52 1C 0D 7E 87 BD 5E E0 82 AB D0 C8
 61 E4 53 EF 64 2D 97 A4 C5 B8 A0 2C 84 BC 8D 25
 FB 65 6B BA C3 C0 A5 16 04 02 24 BA 8D A9 EF 12
 47 06 42 28 93 29 70 82 3C 82 7E 2C 27 43 5C 31
 EE 77 F7 BD 88 77 9F 5B 7D 40 2B 21 94 CF B7 D0
 B7 4A 66 54 EF 1F DF 87 6D 15 BD 10 57 FD E5 91
 F1 57 38 8C D4 8E AE 0E 96 7A A5 78 70 22 95 44
 FE 6A C8 1E F5 C9 D4 91 7B FD 83 5E 0C E1 4B 17
 F0 E6 63 13 C0 A1 82 B7 AF 0D D4 63 1E A8 30 44
 2A 1E 47 C2 C2 FE 86 CB FD C8 CA 97 6A 3E EF D5
 26 05 58 75 FC 19 26 BF C8 6C 61 C9 C1 BF 03 02
 D0 13 3F CF 4B EB EA C8 9C 15 87 DC 63 D6 59 53
 18 CD 5E 2D 8A 39 DA BE D3 29 54 19 75 20 A7 7D
 2E FB 8D 2C BF 26 F2 B0 50 EF DB 97 13 AE 2A C9
 9B 6A 45 22 7C DD 3D 4A 94 1F 47 6E E5 A6 35 B5
 9C 30 CC 2A D3 9D 41 24 B2 BD 63 38 56 B6 6C 54
 41 5B 09 74 EB D7 B6 6C 74 2A DC C6 15 74 EB 97
 B3 C0 E9 97 AB 84 2F 93 E5 56 80 64 8C 20 9E B1
 64 01 93 22 9D 7F 36 AB 93 21 EE B7 8A BC B4 63
 0A 7E C3 60 77 B8 5F 5E F7 4D 3F 87 D9 C1 D9 2A
 5D 80 CB 22 22 7B 23 68 0D 91 68 75 CC D4 AB 01
 BC 5C A7 DB C0 9A D0 18 03 09 3A A5 B1 AB ED D3
 2A 87 72 2C E8 BB 38 2F 39 60 C4 AD 44 7A 8C 1D
 3C 4A DE CB F5 96 DA D2 D2 63 2B 42 B4 05 5F 21
 78 B1 F1 4B FB 3E B7 D2 B4 8C F3 10 44 15 29 33
 54 B3 1E 0F 91 4C EE 9F B9 93 09 08 DA 2A 77 74
 10 28 6E 94 C7 24 8D 5D C8 27 2C 5D FF DE 9B 40
 9B C5 E5 95 B8 37 E6 2A 5C 97 72 44 B1 F3 21 C4
 F6 96 48 83 0C 8C 86 4E 3E 93 A8 6C 05 44 D9 28
 9C 27 5D C8 37 42 62 2E 5B 69 EB 2F 53 10 0F 43
 2D 12 AC 53 FD 81 85 FE 47 3B A4 E6 1B D2 EC B1
 53 BF C8 C2 93 77 3B 9C F8 65 BC 77 BF 4C 0B 8B
 A6 E7 5D CE AD 1F 9D F9 90 69 C9 FD 69 82 86 24
 1A E1 08 8F D3 80 6D 02 3A ED F6 8E 29 7F 6D BE
 25 69 20 BC 1F 23 BC C2 AC 0C B1 83 62 E1 7C 1A
 CD B7 35 91 47 F9 4E D3 C8 B9 9C 41 CA 50 22 9C
 4A 29 8C 0D 24 BE E7 7E E6 1D 0E B6 87 CE 50 4A
 4E 69 0A 99 D2 40 AA FC 2A 56 37 E3 C0 D1 81 DB
 B3 F5 A8 AE 6F 71 B8 19 A0 14 5A 2D 6B 7E 02 81
 F4 DE 68 A3 77 53 BF 6D 3F AE 69 DB D4 C3 BA 75
 8A DA D4 BF 73 69 77 B7 0B 24 C5 1F B9 B5 F1 D2
 DB 88 D7 81 99 E3 0E 06 13 D7 72 24 03 53 F9 23
 C0 43 99 9B 3D 95 6A 0D F0 A5 9F BD 3C 81 4F BF
 5C FF 62 C3 F6 AE E2 9E F1 E5 C2 CD C2 A8 07 A9
 C4 69 A7 94 6D E3 56 F4 EE 87 23 F4 2D 68 55 F2
 25 E1 E2 0C 0C 75 3F F7 0F 6C B7 67 EC 7D 53 5C
 3F 8B 24 91 F3 D8 72 0E 61 7C AB 06 B6 7C 83 5D
 47 6C 8E E2 DD 4A 0F 2C C4 29 10 E1 79 75 8D B6
 C8 9C C0 E7 62 61 05 AB E4 EE 0F 92 B2 BD 5E 8A
 03 AF 50 77 6F 17 3B E3 4E FA 41 6C A1 0A 63 FF
 84 36 DB 30 12 48 C8 C1 16 F3 FD 52 D9 F1 54 A3
 BA E9 5D F3 2B AB 4B 45 46 7F 0A D0 25 10 5E AA
 8E A8 0C FF E5 EE E3 49 89 7E 81 F3 AD 89 53 2C
 C3 96 DA F1 27 E9 DF 85 75 9D 43 D7 ED 2C 80 37
 CC 90 21 9C 4B FB 56 5E 00 27 F5 16 5B 9D BE F0
 06 8D 6D CC 84 89 A8 24 90 34 FE AA 7F AA A2 2D
 18 45 90 84 7F 02 E9 0B 55 9A 7C 67 79 25 2C BF
 4E C8 6D 6A B7 E3 3E 0F AB 88 16 EA 84 D0 E0 99
 F6 A0 01 6D FC D5 3F 4A 17 CE BD 61 B2 9A 14 95
 94 73 D9 F1 53 C2 3F 50 69 65 4E C8 AB 13 EE 89
 EE 5E 4D 8C F7 5F 04 91 39 95 33 E8 11 82 C1 EF
 C6 BB B1 BF AB F7 F3 98 21 83 31 21 A7 E4 36 C4
 20 62 7D EA 8A 61 6B 70 BC 12 19 CD A3 91 71 6A
 AE D6 EF 5E CE 2A CB F6 78 80 58 F1 49 6A E4 D2
 4C BE B4 DC 20 85 44 67 22 D1 64 D2 A0 0F DD 60
 3A 01 25 5D B2 4E FB 6F EC EB F4 49 41 EE 46 FA
 00 76 E5 D8 55 D5 78 AB 1A 74 43 23 CF 2E BA C1
 3E 8E FE EA 86 54 E8 A4 B8 A7 5A 62 A7 C1 7B 80
 E8 DE E7 7F 7D 98 24 48 93 0A 78 62 88 5E 64 FC
 65 B9 09 78 C5 C8 E8 47 85 DA BB A5 14 EB B7 8E
 AF 29 37 1F 94 93 5A 90 AD 69 12 05 19 6E 2F 2D
 17 3B 17 67 53 60 6D F3 EA CA DE 32 2B C1 71 60
 2D 75 D7 AF 72 AF 71 98 B0 E4 92 04 39 33 11 5C
 D8 B1 B1 F5 75 64 5A 60 04 BB C9 CC EB 5C 01 D8
 45 78 73 10 C6 37 A3 63 EA 38 CD C4 08 66 15 7F
 82 56 7F 16 67 A1 A1 A2 5C 3D 16 C6 86 A1 39 A1
 6D 1A 3C 03 B8 C2 7C D4 13 76 91 DA 45 30 53 93
 58 0C 98 C0 7B B1 B5 DB 2B 2D A1 EA A5 E6 CA 6F
 7F A3 1A C1 70 70 D6 53 9D A7 A0 AF 92 6D 6B 66
 F2 E5 18 DD A9 36 4A F7 BB 99 BA 6C 25 C1 79 32
 46 1A 46 AD 8A 11 DC D4 4F A7 1F 44 0C 5F 72 2D
 34 39 E1 00 49 26 FF E3 85 18 49 40 02 0F 9F EF
 03 09 BF 97 2B BB 13 E6 40 D2 31 92 16 37 61 24
 B5 E6 73 14 37 6C 37 4F 72 51 F8 A6 70 DD CB C3
 85 39 C1 0B 0E AE 7F 78 AC 6E 96 3D 82 32 07 34
 35 22 9B FE FE 6B 35 8F A3 9B A8 5E 5F 84 ED 67
 0F 0D 4D 02 89 B6 DE 9E B1 62 76 ED E8 E3 98 81
 68 46 07 AA A7 AB 58 80 55 26 26 84 EE EC A1 C0
 EA A5 30 06 F8 33 19 D2 A0 5D B2 8F 6C 7B 48 04
 51 89 05 73 78 A1 0E C7 27 EB C0 45 66 A7 FE 06
 28 10 24 58 B7 9C 7E 5A 31 7A A3 06 17 CD 6B C4
 C1 E0 4F 0B E2 94 15 5C 40 5D 5D 26 50 90 14 46
 56 73 B0 B4 C9 F4 B2 A3 BC A1 ED 5F A8 90 C1 AA
 C4 6C 6A A2 6C 80 DB 81 F4 C0 C9 F9 D2 25 1A 4D
 A9 54 20 93 0D 8B 52 CB 8B F9 F4 80 EB 41 B1 EE
 C7 57 F1 26 A4 93 B8 65 51 7A C7 AB D7 6F CA B6
 CB 61 E0 2C 47 6C FA 1A E6 CB BF 1B 3D 14 18 A2
 12 DA E3 9B 55 BC 9B 11 26 8C 29 2C 38 C5 BB E3
 D2 1D B9 98 D9 A8 4E 18 8E 27 AA 29 49 9D EE 98
 5A DE 0E 89 F1 E4 BD 92 2A D0 88 39 B3 C9 5D 51
 E3 1D 48 64 22 4B 4D 47 F2 6A 32 3A 5D 9F 4A B4
 CA 0A E5 9B 8C D5 C0 C1 63 60 B2 7A 13 88 C7 F0
 D6 9F 4F 99 97 85 A9 AB 64 88 6F B2 42 63 E9 F2
 23 88 D9 6B E1 6F 64 11 FD D9 65 AE 2B 15 0C 9A
 C2 6D 7A 81 AE 0A EA 71 B5 AA 80 4B FD EB 24 3D
 75 69 5B 8D 0E 34 1E 4A
* End 107094522 3193212753