* LTspice Encrypted File
* 
* This encrypted file has been supplied by a 3rd
* party vendor that does not wish to publicize
* the technology used to implement this library.
* 
* Permission is granted to use this file for
* simulations but not to reverse engineer its
* contents.
* 
* Begin:
 31 56 71 F1 F7 DD 36 2E 28 F9 42 60 15 D5 DB 2C
 F9 D9 5B 16 24 98 7C 0E A1 28 3D D6 47 F6 A0 21
 0F 4B 03 88 71 65 02 0C 33 C9 1F 45 E7 1E 8F 1D
 7A 98 04 00 C0 09 81 2E 92 2D CA 92 52 A5 68 0A
 BE 63 4A 70 87 41 2E 35 E9 CA 20 2C CE C5 AC 14
 2E 89 8A 1E B2 36 E6 10 D3 37 34 15 FB 49 FB 24
 E0 16 4A C9 1C B6 5C 8F DA 2B 27 21 1F 73 D0 62
 AA C0 30 F7 34 4D 17 21 3D 41 4E 76 81 74 C9 C6
 11 B7 B5 8D 08 F3 ED C0 15 1E EC 58 84 37 EF 5D
 7E 0A 8E 2E 56 15 B3 F0 47 CF 29 66 F1 F1 E8 8E
 23 36 2D 9F 31 59 2E 64 E9 2B 10 34 8B A3 F7 92
 52 92 2C C5 AD 7D BD 86 EA 14 7E 59 AC 5A 6F 6B
 35 01 8F C1 C5 F8 4A 2B D7 45 14 BB 51 B9 4F E5
 77 C0 DF B6 18 8E 53 DD 85 EE A7 62 2C 6E 13 34
 F7 25 0F AC D2 C2 BF 7C 10 B9 28 75 9C 5B 04 04
 C1 7C 2C 41 33 E7 6C 46 96 4E 04 CD 2C A8 90 88
 92 24 1F E6 73 53 27 01 CC 84 EA CC 55 92 4A 39
 CE C1 A5 20 9A 5A D1 42 9D 25 19 61 79 63 F1 59
 AF 2A 77 9C 2F 8D D3 12 BE 15 C5 F0 C2 66 60 E8
 8E 55 BF 24 08 10 B6 26 5F F5 0E B9 E2 47 B5 48
 65 15 28 31 0C 5D 86 C3 0E AE 2C 05 7F 00 07 F2
 88 57 59 0D 06 FF F5 62 DD 75 09 7D 96 8B 1C 43
 2A F7 28 D7 C1 65 01 75 B3 65 5F B0 9B 3A 59 CD
 8F F1 6E AA 52 56 F2 0E C2 61 92 0F 12 AC 7F 6F
 DF AC 44 CE BF A8 70 AC 24 20 50 E8 02 47 A0 C7
 1C 8F 9A D5 83 23 9E FA 78 CD 92 C4 80 88 95 FA
 AF 16 EF D4 A0 77 98 40 D6 F7 08 29 BC 76 26 4F
 B2 A6 B5 96 88 6F C7 C1 34 9E 80 45 47 D0 C3 74
 1B 1B 6D 4C 83 98 4C 79 E6 87 B7 68 EE B1 B7 04
 7A 16 CF 28 48 BA 9E 1F 4C 64 83 DD 29 5E EE AF
 8E 74 F0 E0 D1 AA DE 6C 66 6F CB 9D EE 5B 3C 95
 6B 7E 46 EC 61 59 42 6F A8 DF CC A8 A6 73 06 52
 44 EE DA 60 D8 FB E5 D4 E3 B7 F7 42 A7 96 DE B9
 07 8C A7 CF D4 02 82 BF 7D B9 95 4E 0B 0D 46 E2
 17 C2 D5 DF 5C 4C A8 19 0D 14 99 FD 32 97 0E 9B
 32 F7 2D 50 92 BB 88 AD 10 06 A1 2C A8 E3 0B 6D
 7C DA 19 00 21 64 FB 4D BD 4D 77 0D AC 46 FA A8
 CD 5D 43 34 2E C8 53 40 FD B7 56 D7 E8 70 9E 99
 42 EE 5D C3 67 FA 0A E6 78 2C 1A B7 A9 F4 2A 7C
 AC 06 14 DB CD B6 87 ED 16 35 2A 60 70 4D AE E0
 F5 73 4D F4 6D DC FA 5A 1A 0B 90 86 A0 A6 6D 93
 53 20 F6 C0 37 37 83 D6 0C 84 3A 76 5A 44 5C 6C
 E7 01 0D A0 80 1B D2 4B CA EE 84 E1 E2 C0 AE 28
 01 99 13 E8 33 39 4B 99 0C 58 C7 D5 E1 01 68 69
 0F B5 59 12 33 69 0E FE F4 7A 49 6B 61 8F 9E F7
 BE 79 01 81 53 7E 36 3C 11 FE DF 26 30 99 54 12
 26 9E 39 C2 BA 3F 23 47 53 CE 69 92 36 0A B9 D8
 49 8C D3 9F 9A 4C D2 5D 0E 24 D8 05 90 44 6C 0C
 A9 51 BD 78 2D F7 C3 3C 1A B8 CA F8 D0 77 03 99
 3F 94 3D 08 3D B6 65 16 3C 1C ED A2 2A 91 CE EB
 15 8C 3C 71 A5 C2 6A 68 49 0E 65 10 CF 92 FA 6F
 2C 93 50 6D 35 B7 23 92 1A 11 DD 72 A0 D3 D2 F7
 A7 86 FC BD E4 98 93 7B 03 5D 3F 31 4E 52 9E 9B
 C7 C8 05 0E 14 EB 43 30 36 B9 CB D2 4E 7D 65 BB
 6B 66 0E C7 F5 CF DA D7 83 C1 9A 70 CC 71 C9 F8
 42 47 47 F6 4B 82 C4 7B 5F D9 48 7E 56 4F 9C D1
 91 FD E2 E0 DC 7B F5 7A D1 90 BA B1 DF A2 59 C1
 E3 69 80 46 83 9D E9 76 1E 81 35 EB 5E 4B 51 37
 0A 8C 1B 7D 03 9B 30 45 40 87 66 4A 44 6C C9 66
 7F EB 1D D2 9D 2A 0B AC 0E 55 C3 2C 45 13 C6 73
 AD 03 7C 67 05 E9 08 2B 14 AB 59 CE C9 0A BC 0E
 41 60 2C 82 E3 88 DB 84 A2 81 2F F9 5E BC A8 25
 4C 2E 12 FD 59 F7 C7 BA 4C 03 1B 53 79 36 C1 27
 39 7A 43 6F 80 05 6C F6 86 07 D0 CD 6D 67 7C 00
 BE B8 32 03 67 E3 64 CA 0C 9A BF A0 71 F0 5F DB
 20 F3 72 5B E0 E7 A1 E4 4D B3 1B 4C E8 7C 75 50
 D4 D8 D3 9E FF 5F 1C BE A4 E5 A2 82 B5 5D 8A DD
 33 93 87 8F 48 5D 3E 20 FF 88 B9 4D 25 76 F2 AA
 72 46 DE 61 7A 64 DA 72 CA 92 EF 67 A1 1D 36 80
 2B D1 44 5B B1 33 C6 24 8A 3F E2 94 53 ED 42 61
 08 3F C7 F0 6B 25 C0 0D C2 61 B4 CA B7 35 BA 81
 16 A4 64 D7 A4 1A 33 80 FF 5D 00 12 93 B3 07 74
 51 63 5A 29 7B DB FE C6 08 F4 EB 51 9F CD EA EA
 90 E4 70 DA 90 B8 22 1E 55 D8 22 F3 CA A4 A7 EF
 E9 42 98 ED 7E A5 C2 C0 E8 5B CD 69 86 EC 32 51
 85 D9 C2 CE 71 5E 1F EE 9F D9 6D 49 1C 3A 3A 57
 1E 8C BA 21 9B 33 AF AA F1 85 71 C1 E0 9D 5F 00
 74 27 85 23 89 78 39 96 8E A7 BC 02 CA FA 1E C1
 EE 7C 83 8D 43 D9 EE 06 D5 56 1C 2F F4 0E 62 F5
 F7 D3 F1 74 74 EE 0A 21 31 67 97 A3 84 32 22 C3
 23 FA B7 F3 99 04 99 FC A8 E0 0A 1A 6F 59 81 60
 77 2A AE B6 10 F5 98 73 24 05 24 E6 AF 26 EA C0
 47 FC C3 88 3A BA B8 A5 40 35 E0 E1 7F 40 7F 08
 A1 32 72 61 CD 36 88 CD 52 AD 08 EE F4 2C C8 49
 14 27 BE 18 A8 1E 98 03 B8 63 AD F8 85 D5 F4 44
 8A 11 AA BF 8F 5F 2E 08 89 7F C0 28 94 D5 0B 8D
 5F 5E 2C 35 3F DF C2 29 45 B7 2E 9E 17 15 C2 CF
 B8 11 25 B9 FA A7 3C 5C 88 63 06 88 AA DA 6B 01
 88 12 3B D5 BA A8 27 E7 94 10 99 A9 A7 26 7C 8C
 C7 D9 A1 95 43 7E 08 A1 2D 8A 76 44 A7 E1 2F DB
 8A FD AD B4 D8 F3 A0 3F A0 8C B8 7A C0 1C B4 D0
 98 69 AD 38 D4 EB 41 C2 B7 89 5F 0F EE B9 46 64
 7C 9D 89 0F 5B C0 EF 0C 05 C7 CB A4 A0 25 68 AF
 D6 B2 D8 53 40 98 19 21 41 6A 2A 42 32 09 62 6E
 CD 8E 3C 07 CA 4F 54 BC AB BB 2B 01 40 2F 3C 27
 A0 D1 B5 6E 2C A6 5E 35 8D 44 B1 F9 5D 09 9D 15
 E7 00 92 B4 13 05 44 B1 2F D4 E4 28 01 82 91 D6
 61 93 47 48 DD 62 EC D7 C8 66 5D A4 6E EC F1 23
 3A 83 73 F8 AB BF 44 03 89 AF E3 53 2E 6B 8E 1C
 6B 93 8B 5D C2 71 F2 6E F1 A8 C4 97 F5 C4 B6 68
 84 EB 27 7B CD E3 DB AF C5 81 C8 AB EB 66 C9 10
 05 BC C3 B8 E7 C1 62 8D AE 4D 98 59 46 9C BB E0
 C3 67 BB 42 60 4A 1C 43 39 F5 A3 4E F7 04 1D 82
 8B 2D B9 0A 33 88 BD C4 56 AE BC 71 CA AE 12 E0
 50 07 DD A8 A5 3E 9B 05 7C FE 4A 82 9E BC 3C 82
 4B AD E3 F6 AF D4 BE DA 8D 88 13 B0 45 3F 7B 2B
 40 09 BB 22 81 13 31 16 80 20 E1 F8 8D D9 6B B0
 47 85 CE E5 AC 2C 8F C4 CC 21 9D BA E7 59 B6 8B
 97 67 47 41 4E 8B 79 1D 4F 65 D2 19 A6 29 D2 CB
 78 5C A2 C7 ED 32 07 13 72 68 38 35 7E 55 6F 28
 76 A0 07 1F 2E 1E A3 62 7C DB 23 E5 A6 37 BE 07
 90 F9 DC 09 0D D1 C5 8F 71 36 60 F7 02 22 04 BE
 26 1B 5D 60 D5 6D A5 BB B2 70 3F 04 D3 A7 32 C4
 5B 06 39 0B DF 96 74 D6 6C E1 A0 19 47 29 AC D8
 CB 99 1E BD 06 CD BE 84 AB DC 4B DC F8 EC 7B 53
 0B F1 B4 22 7E 8D 21 1D B0 77 36 72 A4 61 1E 98
 81 91 F0 58 E6 99 02 51 63 D9 C8 B2 3D 5D 31 49
 98 00 01 A3 B0 B5 17 E4 8B 8E E1 20 6A CE 22 29
 F2 09 77 23 A2 DD E6 59 0F FD 21 F0 35 7A 2E 86
 16 D0 60 7C AD 44 67 ED 9C A6 10 77 96 B0 45 8F
 CF 32 7F DC FB 61 96 39 57 DE 72 DE F4 E0 34 DF
 BE 85 06 BF C0 9B 92 90 4F E5 FF AF D3 06 5B AF
 B4 EE B1 D7 41 BE 87 74 C4 A7 9F BC 22 DF 04 FB
 1C 88 D1 C8 2F 63 76 CE A2 8C B3 0A 85 7E 61 57
 FA 83 E0 D5 8E CD BD 7C D9 00 4B B6 9D 0C D7 C9
 25 88 14 9C 5B FC 49 B2 D9 1C C0 F4 6F 37 13 17
 1B 92 90 FB 68 0F 14 65 38 CC F1 0E A4 D3 94 27
 2D 94 69 2F A5 D0 02 DC B5 4A C5 D5 52 9C 79 8B
 4C 5B 0F 67 39 AD D6 F6 4C C2 86 E3 35 46 43 D2
 E0 D3 63 92 30 73 F8 52 EC 3C FC 3D 81 3E 58 FC
 34 33 8A 98 BA C7 DF 64 9D E3 66 A2 FD 0B 43 68
 83 64 DE 3B 56 92 18 7C 22 99 5F AA 10 84 49 8C
 C6 57 AC 3C 6D 5D 16 1E C8 FE 01 70 37 80 D1 70
 63 15 F6 0F 56 66 C9 37 60 41 90 55 76 08 98 C7
 00 48 FF C1 06 22 C8 44 03 77 D7 B6 69 2D D2 33
 0E 01 AA D4 AF B6 E0 A3 AD C3 C7 5E 18 80 78 DC
 35 08 35 EB 42 B1 02 07 9E 82 D0 B6 73 30 44 50
 42 0F 08 34 97 E4 E7 96 77 25 9D 28 03 13 D0 A9
 E6 97 57 9D E1 DA ED 40 31 96 4D 8C 5A D4 E3 2E
 C0 9C E7 7D 89 A6 3B 8B 0F B9 68 A1 9A 8E C3 B9
 D0 6D 0A D0 B6 72 8A A7 E4 F7 AC 50 DD 26 EE D4
 32 C5 5C FB E2 7B 30 FD 9F E1 CF EF 62 21 55 D0
 F3 7F 0A 7E FD 56 50 76 D6 EF 91 2B 30 21 22 21
 EA 14 0F A4 97 69 3B 99 D6 B8 16 EE 64 8C 54 99
 76 60 53 3A DC 36 53 C5 E3 11 E5 28 7B E2 17 55
 A8 20 76 F7 53 88 D7 9C 21 63 D5 CA CF 8D 5F 41
 F3 27 04 C4 DF 74 55 33 52 FA E2 E9 8E 6D 4E 58
 DD AB 01 AD 22 B7 13 84 0B 18 27 3F A0 BA 0D 6A
 BC 6E DB B4 B1 4A 99 EF 81 B7 38 EB 0C 92 B0 F9
 30 00 87 F9 99 31 A2 BD 2E D8 72 13 48 49 01 64
 B3 72 F6 6C 9A AB AD B4 BF DC 6B 53 4F 24 CF DD
 E8 79 5A B6 80 A4 B3 CC 0E FC BF 61 89 6A B5 58
 F7 8D 48 76 B0 49 D0 F8 5D 6D 81 C8 52 4B 66 96
 F5 A1 D5 04 C2 66 50 4E 17 A6 0B B5 7F D4 59 D6
 D0 80 B3 CA 49 69 87 F9 08 E6 F3 6D 3D 60 DC 78
 9A 69 D8 B0 E0 FF 7D 7D 28 0A A4 8D C3 96 4A F4
 CC 0D 2B F1 05 A0 D5 FD CC B5 3D CF DE C9 1D 48
 41 9B 62 93 39 B4 8A 64 BD 54 15 B0 F0 F9 DF 38
 9E 8B D3 CA 89 E5 26 9B 54 DF 74 78 FD 91 1F 05
 9E 44 E5 42 9F 68 CA 89 8B DF C5 A2 42 A4 21 5F
 9C 22 E3 F5 DD BE 50 A1 6A AF A5 79 DE 96 8E 79
 35 22 70 49 6E 12 08 82 9E 62 39 7F DC CD AF 81
 1A 8C D0 A8 B1 E8 20 75 8E 72 D4 C5 7A FD 95 16
 D0 28 FC F6 B2 23 B7 E6 32 70 67 AB 1D 42 96 B6
 88 CE 4D 36 55 36 35 FE 2E E0 FF 49 A7 C5 D9 D7
 94 B9 03 CF 2D AD 7B B6 C9 9F DF 1D A3 F7 67 40
 F1 76 84 8C 9A 7D 9A 7B BA 8C CF 63 74 35 38 42
 1D 9E AA 5A 21 1C 1D 92 EC 3D 0D 74 C3 AB B8 47
 BD 5A A2 64 C5 8E 04 CF A3 BE F6 19 C8 3E 99 60
 EC FE 92 EA 84 9A 20 E6 E5 6B B4 42 A7 A1 10 C0
 6A 60 54 8C D4 79 85 9D 10 C0 BC 45 38 2E FC 11
 22 5F A3 1F 3E BB 73 18 69 4F 4A 97 14 E3 F4 EE
 C2 F7 F4 81 1C 09 4F 47 BF 18 DA 62 16 40 54 1B
 7D F1 6C 3D 2F 64 F8 8A 09 21 21 B3 D3 67 B0 8D
 D7 95 E0 E5 F1 77 E4 39 95 CB 33 52 73 EE F1 58
 27 D5 AB 0E E4 59 4B 67 67 26 B9 F0 13 53 E2 B5
 B5 F8 8E B3 8E 97 A1 95 31 E1 7B 7E 09 9B D3 4F
 45 64 C2 6A FF 66 A9 00 A1 9A CD 13 3E E0 62 5E
 F2 D6 C1 71 D5 BF BC E5 40 A4 E9 C7 8D 6C 5E B0
 C0 A1 F6 21 F7 68 7F F9 90 9F A6 BB 6D 08 48 A6
 C6 08 28 AD F1 D8 97 F7 F7 85 12 23 6D A5 5A D9
 5E 6C 1D 72 CD B3 C2 FF 82 89 52 DC 34 67 69 93
 6F 1B F1 83 1C 0F 29 BA D5 33 6D FD 5F 7B 1C 53
 07 34 B7 A8 77 75 8B FA 52 97 59 4F 53 67 CE 88
 CB 41 64 15 3F 32 80 22 30 9F 86 F4 5A 84 20 03
 74 9F 89 95 0A E1 5C CF 44 A1 37 25 34 B3 12 6A
 A0 E6 04 3E 55 79 7A E6 BE 3F 8A 57 E5 AF 77 41
 7C DD E7 0B 70 4B CD BD 46 65 F9 91 13 16 1A EC
 D2 11 48 30 87 BF 6D D9 FF C3 05 5F 36 F7 D1 57
 7F 62 3D 60 E7 01 65 5E 63 E1 79 F1 BF 27 59 E9
 73 DF FE 74 89 AE 59 51 08 53 D8 98 25 B6 6B AC
 B4 3B C1 41 EB 40 30 AB 6E 74 7D AD C2 E5 2C C0
 7D 13 CB CD 30 C0 E1 16 E2 9A 55 EC F8 4B 62 EF
 F0 5B E6 F4 8E 79 B3 82 A4 90 FB CD 32 C7 4B 4F
 D4 49 03 2F 97 15 CE 3F 94 9F 6E 8B 6B 94 D6 EA
 64 81 9C F3 43 11 B3 D8 BB 29 A5 0E 4C A1 9D 82
 5C A2 35 64 13 8F 26 75 A0 87 EE F3 4C 2F 19 8A
 72 B4 62 F0 9A 39 8E 33 2E D8 0E 74 02 35 31 31
 9B 53 CB 50 80 5A CE 95 6B C1 DB BD 43 7C 8C 5C
 89 DF 37 44 85 75 10 D5 A4 59 F7 D6 CA 8E C8 3A
 A0 0E 1D 92 6E 1C 5E 5C DA 5F 7A BB 13 23 69 B6
 5F 4D EB FA 1D FF A7 A4 9A 5C 96 92 8A BC E7 81
 0A 28 03 E8 F8 9F BC F3 0E B5 03 99 3E 2A 26 FA
 36 E7 B6 24 62 BE 45 B5 56 DC D3 36 AE 56 EF 77
 5D 4C B1 E7 FE 81 1E 89 1C DE 53 F4 1C 6C F0 5C
 35 8C D5 F1 45 57 3E 34 E9 6F 81 E2 D9 41 78 50
 E9 81 04 58 64 64 66 17 94 5E A7 02 A2 4D 7A F5
 CB 3B 5C 09 76 CF 5A 98 95 88 A2 D8 C9 1C E5 90
 7A F6 CF ED 55 9C 8D E1 FB 93 BB FC 26 AE B8 4F
 7B A6 0B 9A 3D CC 0E 9B 66 52 13 48 5D 7A 8E 88
 95 6E 14 CA C1 08 29 B4 01 01 39 09 A7 30 90 C4
 91 F3 E0 58 15 83 3E D6 4B 36 ED 64 C5 B1 68 3A
 01 DF 21 A5 D8 54 B4 1B 0E 32 E4 FE 57 A4 79 79
 B2 99 2D 50 4C 6C 6D 5C 80 EC 52 AE DF 8A AB 74
 F4 9F 2C ED 8D 41 96 3C F4 0D A6 7E 2B FC 94 F3
 06 52 E0 CA 94 C2 16 D5 3D 3A 2C 9B 88 70 18 FA
 3C 4A CC 13 28 D4 27 46 13 C1 F7 6A 97 78 53 80
 2F 0C F1 B0 BB E6 79 D7 63 A7 8F 7A 4E 97 58 2B
 F4 5B 73 47 8C C5 59 5A 12 39 D1 4D C0 D0 F3 71
 44 E4 F4 13 4C 16 6E EE B0 AC F2 DA 96 17 F3 81
 2B F4 B3 8A 4F F4 D0 83 24 73 56 83 B9 96 A5 D7
 56 60 51 47 F9 20 96 38 45 B9 91 5B 84 B4 EE 79
 D8 08 81 5C E6 8C 08 ED A7 86 B3 97 0E 27 51 9A
 F9 E8 FF 12 E0 87 76 C4 AB 01 11 01 7F 22 7E 37
 3E 2C E2 E0 04 C5 AE 4A 95 F2 17 37 5E 1C 0A 81
 2F 9C E4 B3 3E 6D 1A 3C 0E AA D6 6B BF 20 A7 80
 CA 4F C2 84 03 B9 F5 CD C2 84 56 50 F6 82 90 13
 74 1F 3D 90 9D B9 8C 09 E0 1A 2D 94 5F F5 D4 0D
 40 56 7F FF A1 09 47 16 BD 84 D1 35 1E 74 1C 62
 EA 36 C4 4C 86 50 FC C1 E8 20 13 FE 6F BD 65 B4
 30 BC 87 63 C2 FD 30 9D 51 C1 A1 6D 95 93 D2 21
 E0 A4 8C 2C BC 4E C2 59 E4 D4 C6 86 B5 5D 51 53
 F9 A2 69 92 C1 81 2E 5E C3 83 FD 9C 67 D6 29 FC
 CC 04 81 61 27 C3 78 18 3F F9 E1 B9 A4 91 1D 02
 3A A9 D5 50 D9 09 06 48 9A FB 1B A2 C2 83 71 B3
 CC 14 AD BB EC A7 25 77 09 DB AB FF 93 D7 88 C9
 C6 69 8B 58 81 60 93 7E DA 07 1F 41 C9 CB 38 9D
 34 AE A1 5A F5 21 1F B3 8F 94 18 48 BB 3F C4 ED
 74 E6 18 B0 35 60 B1 81 9C C5 E5 D7 F5 E1 C9 3F
 84 F2 D0 93 CD 4C E2 8F 71 A0 E2 B5 26 69 8C C1
 03 73 81 72 16 C4 4B B3 A0 13 C1 7B F1 58 17 FB
 E4 21 0D CC 82 84 8B 86 86 E7 FB A6 A6 A7 62 C9
 B4 73 66 DD B5 8C D3 CA F9 E0 57 2B 60 0B 31 E0
 BD 78 52 11 06 C8 D3 C7 67 AE 85 FD 70 D1 51 36
 06 40 B0 1B BA 64 24 6F BF B9 0A EF 77 2D C3 3E
 EB 52 AB 68 34 BF 3A 46 95 93 BF DC D7 8B FB DF
 F7 74 F0 5B E6 AE 85 C2 05 65 9B 82 92 A0 A9 5E
 F5 A6 AD BA EE 31 33 D0 BF 62 86 0F 2F D8 2F FB
 48 95 0F 6A 8C 06 75 C7 34 EF 49 0C 93 33 D6 B4
 E4 D6 9F 43 7F F1 0E A9 13 EF 1D A7 28 97 24 7B
 45 7D 72 6C 7E 30 49 FD F3 51 47 07 BF A3 8B D9
 2A 4E 00 D7 70 9E 1D 3F BF 94 F5 F6 63 52 DA 8E
 1A F7 F8 1E E4 CF 27 CD EF 9F DD 43 E3 CD B7 95
 20 03 44 6E 4D 05 31 B6 0E 00 BD 64 9B C9 E5 24
 FB AD 28 63 E9 4D EF 7C 17 84 64 2D B6 33 ED 9C
 99 12 42 9C D5 DD A1 64 68 CD D9 30 BC 2E 18 BF
 81 F2 B9 A4 A4 7A 65 CE DB AB 13 4B B5 C7 7F DC
 79 71 60 E2 BD 40 6E F0 9B 04 C1 B1 02 77 15 DC
 D4 D7 60 46 A3 5C 6C 1C E3 62 FE 9D 36 27 70 2C
 1B 0B 3B 6A 59 FD C3 42 F3 DB 82 41 E6 5C 3B 74
 A2 FF 88 8F DA 79 25 E5 3C 5B 42 82 1D CD F4 C0
 89 CA 53 C2 36 62 48 1D 8C 22 39 FD 57 27 D0 DF
 DB 29 D6 01 89 5F 66 4D 10 03 05 BC 6D 2A 84 F1
 75 8E DB DB 64 2B 08 FF 96 2E A0 B2 AA EB 8B 42
 19 EE E2 DB B0 E1 C1 54 AD 3A C6 CA C5 C7 DD 31
 EE 2D F4 5C 48 A4 EB 51 99 1A 5D B4 20 82 7A B1
 1C AE E4 46 C2 1F 80 B9 BB C4 75 E4 0A 8A 6D 24
 6A C2 1D BB 63 4D CF 7E 77 C4 2F BF 98 E9 0F 76
 4C 74 E6 DB 76 16 2F 28 45 62 BE BF 22 BF 25 11
 D7 11 20 E6 DE 26 CC 5D 70 A1 5A 75 8C 9A E5 2F
 B5 F5 5A 1A 29 EF CB D5 6D BB 57 4E 6A 30 5E B0
 27 0E D1 12 AA 72 D3 7F 59 6A B4 CE CC 0F 70 26
 71 5E 11 72 AA 26 48 B5 C4 AF 2D EB 6D 33 28 1A
 E4 1D 84 9A E0 BB 11 EF 19 5E A7 4C FB 65 0A E5
 02 11 75 A3 9F 55 A1 96 3B 8B 28 E7 29 93 FD A4
 BC F7 63 69 AE 76 1E 1F E3 24 F6 0C E8 D3 07 76
 2C 55 2E 1A CC CB 26 9C F2 A3 88 CA 4D B0 FE 8B
 15 25 26 6E 5D C8 30 C6 8F D3 31 11 58 7F 98 33
 9F 99 6A 91 7B 3B AB 49 17 26 A4 A6 F6 0C 78 CF
 AF A3 B8 12 5B E1 50 F2 00 E9 3C E5 B6 D1 5C 69
 78 0B 15 56 28 11 24 26 A1 7C 73 59 AD 0B 02 06
 33 70 9A 4B 53 A4 C4 A6 E6 2B 89 E2 00 86 7A 15
 C5 16 E6 11 81 80 18 5F F2 07 C6 14 2F A9 33 CF
 27 D0 50 FD 14 6C D1 BF B4 07 71 E1 8B 09 BB B9
 DD 3D F5 EE C5 D1 D8 3E AA A1 D2 22 9F 68 B1 F7
 03 48 C0 C2 26 5B B6 7C DC 39 92 66 3A 1D 55 5C
 AC 4A 1D 91 BF 4B 1E 54 CD 67 A5 FD 97 B6 9F F4
 75 E3 59 91 78 31 97 1B B7 71 BB 06 B8 C6 F0 3F
 E7 61 4D 44 63 0F B4 51 A2 EA 67 A8 F4 D8 21 4C
 17 33 AC 03 73 48 FA 45 A0 0B A7 1A 44 FF 2D 9E
 51 FE A6 3C F0 A6 DD 5C D5 25 17 9D 73 05 C3 42
 06 88 84 CA 17 C8 88 68 53 6F 2D 50 0C 39 E5 45
 CF 7E D2 7A FE 85 9F 68 D5 CE F2 A4 3B 48 FC 8D
 D4 6A C9 58 BE 05 54 07 43 85 29 F9 7A 52 88 B0
 98 78 C2 F6 3D 54 A8 38 6D CD 0B 9A 31 88 63 71
 AA 44 84 A2 EB 63 DF 2D FC BB C8 F9 22 F6 8C 23
 BD 2B C7 6B 76 0C 15 D4 E2 9A 2B 43 A1 EF DF A4
 0A 44 E4 83 3F B6 48 BD AC 23 66 5B 35 37 D4 3C
 D9 4A 27 19 2E 46 D7 F9 A1 FE A5 8D 49 48 E9 8B
 13 90 60 84 1F B0 45 DE 47 FE 49 62 09 A2 B0 71
 87 8B C4 13 1C BB 80 5C 89 88 22 A2 8D 52 3C EF
 04 0D DC FD DD 97 1F EB 78 6A AD 8A 48 7D 21 39
 34 DF B7 74 65 81 09 12 91 29 26 10 AA CD D2 ED
 57 B7 FB AE 97 7A C3 09 66 55 38 11 85 44 2D 72
 7F 6D 34 CF 58 B0 74 12 5B 17 D4 F1 5D 63 D9 40
 13 41 F7 06 58 E0 0E FA 18 7E 60 E6 2D FA 4F E9
 08 7C E8 09 E7 FD 21 D4 25 8D 00 8B 3F 48 D6 13
 EE BE EA EF 50 88 98 13 56 88 DE A5 AA 8B 29 0D
 D0 C1 F7 00 4D C2 5B C8 F6 A9 AF BE F0 AB D9 94
 EC 3B 8C A2 BE AD 01 73 D6 59 80 51 B7 90 4B 45
 6E 18 26 3A 90 89 8D B0 09 7A 63 D0 2F FE 4D E5
 C8 27 EF 33 52 6F BF A8 D4 52 50 04 7F 6C BA 47
 43 CB 2F 60 20 4D 24 72 A0 6A 80 DF C9 D4 E7 5A
 FB 60 88 A1 F1 B7 D1 BD 3D 8E AC 4C 4C 41 4F 5F
 7B 1C 68 E5 1E 89 78 CD 01 D8 99 08 86 5E 86 56
 3D E8 59 12 A8 88 5D A7 49 ED BF 78 90 45 F8 1D
 02 EF 87 F6 C8 12 F4 44 35 D7 8A 35 2B D3 EC FC
 8D BA A5 99 2F AE E5 84 40 33 52 6B C1 0D AC 38
 DB 70 69 E0 CB DF 77 0B 9B FF 50 32 FE D5 06 6B
 CA E9 25 37 9C 44 AA 58 2F 13 4D 77 20 3E 12 01
 53 EF 2A F7 49 ED 9E 35 8E D0 F2 1D 2A 59 AC CB
 7D 8A AD 8F 6C D4 13 D0 81 66 A1 8C 84 CE 1D C1
 1A CE E2 BE A6 C1 7A 55 94 B2 B6 EB BD 11 49 F0
 38 A0 7C FB FD A7 9C 85 10 9F 15 2F 9D E1 B9 C4
 0B 41 35 04 6C 40 08 29 EE FA 32 61 A5 57 96 8B
 3D 34 56 0A FD 80 EC 27 D7 64 35 3C 1D A0 16 66
 7C 5D 54 04 3D BF B8 84 D2 86 7D 9C 50 5D 50 1C
 B8 39 87 2D 96 01 3F 5D 5C BB BF 41 A9 D0 20 CB
 73 3F 9B F5 31 88 E1 45 F1 60 9E 25 A4 0C FB 62
 A6 BD B6 15 E4 FB 61 8E AB C0 F6 B6 B5 03 29 91
 B5 84 2A 97 87 B5 65 31 C7 92 F1 A9 55 BF B7 B2
 1F 8E C9 DF E4 00 7D 98 53 20 C1 97 43 7B 48 AB
 CB 92 04 08 EF 1A 42 A9 FB E2 28 73 72 3F DE B3
 E0 E4 15 B4 11 19 78 F3 18 18 27 8D B6 C7 84 F8
 2D FB 8E B4 95 D3 3B 65 9F 3A FA 64 A4 80 CF C0
 39 44 D2 3E 99 68 5A EF 82 3B 59 52 9E 75 66 5F
 0D 58 D6 C9 54 F0 6D 26 AB 3C 27 C0 26 1C 13 86
 57 52 F0 5B C4 BE 6A DB 5D 7F 1F C3 A5 9D BF C0
 14 9A C4 9C 79 BB C9 7B DB 30 3F 6B 4D A1 A6 66
 EF A8 27 D1 7E AD C0 33 39 57 E6 BE EA 02 E2 09
 9E 62 62 48 91 F3 58 C6 B6 55 EA 75 27 7A 1A 3C
 14 04 7C F0 5C 12 32 B5 4D 87 F0 E8 20 B6 F5 9B
 E9 C8 ED 9E A2 63 88 96 26 D7 E2 A2 06 A9 70 DE
 2F D8 8B 99 48 18 E1 16 A0 48 BD E0 F6 AA 00 AC
 8B 31 17 7F 4F 2B 83 CF 46 D4 A6 D8 60 DE F2 3C
 F9 AD C5 0C 4A 8B 53 93 28 15 91 04 8D 61 9C F5
 83 32 FF AB 14 48 B5 0A 7A FD 27 F0 28 2D AA A5
 6C 43 23 30 8F 42 E0 54 27 9A 51 60 4F 4A 2D 44
 FA 61 CD F5 A0 C3 2F 44 F0 30 97 BC 53 9E D2 B5
 94 67 6E 19 2D C7 56 F0 90 EE 91 F0 26 D3 B3 38
 E3 12 9A 83 A1 08 6A 3F CA 2B 7A 29 28 5F BC 90
 D4 2F DF AA 1D B6 2B F9 88 A5 E9 DE C1 05 85 BA
 6A 12 DA BB A6 EC C9 83 84 2B 04 88 CC 49 9C 8B
 58 3D 4F F4 49 EE 40 B5 2C DB 23 65 AA 9B 99 99
 EE F3 C4 A3 99 DC 35 5E 00 C5 EA 04 F3 8D 45 06
 03 14 62 B9 19 9D 73 E3 89 A7 87 3C 28 DE A9 0C
 EC B3 0D B7 88 9B 63 2F EE BC 37 7C 6B 0E 81 C9
 4A E0 1E 44 E5 30 02 62 D0 E7 7B D9 96 1E 8B C5
 0F 1C 91 24 31 21 0B E6 8D 65 E8 03 4A AE 1B E0
 05 9F 08 A2 D9 37 3B 52 B2 B2 1C 1E 0E 5A D9 00
 65 5B AE 56 83 BF 95 A9 C4 38 56 FC 76 38 A6 7B
 92 DD ED 35 96 FB E8 4D B8 82 16 54 D7 C6 1A AA
 C1 D9 ED 59 64 14 10 61 55 A0 06 30 9A EC F8 7F
 D0 05 40 CE 83 C1 3B 15 C8 97 DD 19 98 90 8C 6A
 C4 63 5B 4C 1C 2C ED 52 70 1E 63 F8 C4 44 3E E3
 60 0D DC A1 84 11 C8 8E 08 59 55 2D 95 5A 5F ED
 94 7A EF D6 0D BB 73 5C 1E 38 55 A7 89 09 ED D9
 94 FD 61 01 F3 18 61 22 15 B7 D9 E1 EA 74 B0 FC
 3A 57 6F FB 63 56 6C 77 B1 4E E5 AE 38 3D B6 50
 B2 9B FA FD 19 0C 70 75 04 67 AC 51 DB 63 A3 50
 4D 42 4D 5D 41 8B FA 82 F3 76 C0 09 BF 43 4B 9B
 C3 49 B7 C1 95 32 C5 47 40 0A 27 73 DC D0 0C 28
 72 60 AA 23 FE 9E BA 1E 94 44 97 11 68 A5 CD 46
 41 6C 7B BF A7 3A 3B D7 77 3F 23 96 27 D3 F8 02
 15 F4 8E A6 2A 15 9D 0D 09 07 8D 7F 8C 96 E0 6F
 14 B1 4E 7F 38 69 86 45 C8 FF CA 3B B6 70 75 9B
 9C 30 A9 A5 B1 A0 D2 A5 26 9E EB F9 83 EF AB 0C
 B3 50 14 46 4D 77 88 16 EB DC 0A A6 A0 78 24 A3
 AB 0C D8 0D 8E 86 7C 7F 58 7E 36 EA AA 1B 3E E5
 65 5D F6 DE 48 BC AE 84 C6 35 AA F0 A4 A9 CF 58
 B7 DB 82 52 25 17 98 99 AC 0A 41 D1 D0 73 5D BC
 05 26 1C 2F 3D FC 35 5C 88 BA 4B A9 9E D9 4F E9
 6E 05 0C 8F AC AA 29 2F 81 B1 9F 54 7B EE 6A 33
 B6 7A 78 FA 01 24 FE 9F A2 EB A2 48 66 0F 1D 62
 DB C1 CB F7 47 AC 89 AA 33 A6 9F 6B 9D 3D 2F 28
 C4 FF 87 CA AD 86 82 26 93 F4 8B 2D 29 16 48 DC
 AC D8 6B 61 38 80 EE EF 5F DB 2B 96 E0 AB C2 34
 97 B5 0C FD DC E5 37 43 4C EF BD C2 37 01 EA A6
 48 1B 98 DA E6 A4 44 C5 D0 02 8E 56 8D D4 89 34
 6F 26 2C E2 7B AA 79 BE 9F 1F 57 5E 15 B4 A8 82
 84 F2 F2 D2 E6 DC 52 E5 35 97 90 E1 0D D8 71 8D
 F3 02 B0 40 1A EF 35 0C A3 E4 68 C8 A7 55 B9 CE
 40 8E 9D E2 C5 C6 31 4A D3 ED E4 CF 35 0A 4F C7
 29 AE 27 3C 3A 8C 04 ED C0 0B 08 74 7B C5 A9 E1
 2B DB 6D 6E 02 60 13 A2 31 3C 32 B7 92 E3 E5 E5
 DE 4A 9A BE 39 86 5F BF 2A FB 69 C1 DC 36 F0 D4
 FD E5 68 EE 9A 9C D8 D1 A0 49 E3 3A EB 98 7A 8B
 A7 4C F2 6F 59 6F 4F 45 18 F9 54 4B 0D 09 DE C4
 38 B1 83 63 C4 32 EC 98 55 CE 1F AE 92 A7 53 31
 B0 D3 90 F1 28 FF 40 10 B1 EB 69 14 2E 9A 27 60
 C0 AA 11 B3 5E DF 86 77 52 63 25 C8 C4 14 C1 79
 44 5B 90 42 C5 F9 3A F4 06 33 58 E1 B1 43 A6 6E
 8A 50 19 62 2D 04 02 64 AC 6D F7 9F 0B E6 7F 37
 1A 81 4E 59 CA 49 5A 93 76 32 42 C6 7B 4E BF FB
 FD EB A5 9D 69 19 E4 65 CF 39 B7 B4 8D C3 C0 4B
 CF AA B6 18 68 63 B7 93 AA 29 E8 F2 13 80 E5 E0
 49 02 D9 A1 9D 9A 0C D5 2B EF 57 17 DA 2D E3 65
 FC FD 67 85 3C 03 04 DB D4 90 72 30 1B DA 14 9C
 FE 05 81 2E 83 D1 50 9F F9 C9 18 23 B4 E5 D5 A7
 D5 25 CC 6E 87 23 7D 60 07 50 A3 FF B0 D0 1B A3
 F2 28 42 C0 2F 8F A5 62 F5 14 1C 9D D7 10 AC 12
 7B EC 2C 80 47 4D 91 F6 14 B1 93 5C 1F FE 99 E7
 40 D5 CC BC 39 F8 90 5E E7 A0 F2 AE 9A 1F 15 65
 F9 98 B0 90 48 FD B9 AF 40 AF EB A1 98 49 BA 37
 86 BA 6D 03 B0 AF 19 EE AB F6 FE 16 B6 B8 93 8D
 7D 80 F7 A8 C6 B8 15 C3 3B 52 3C 27 F3 AE 28 3B
 D0 77 3E 80 5F 3B 3F AD F8 C2 3E 4C 3B 7B FF 9B
 E7 77 3A BA 13 BA D1 E1 C2 4F 51 47 4B 4A 3D A5
 06 B3 D1 BA C3 DE CB E6 66 24 40 4E 08 61 E3 F6
 66 5B CD 96 E5 B5 17 C3 2C FA D6 26 4D 5C 19 89
 A2 56 8E 6D F6 E9 42 08 30 64 8F 49 78 CC 0C FB
 11 54 31 E5 A7 3F D2 94 0A EC DB A4 E2 44 A7 4E
 A4 F5 8C DE 1D 2B 37 23 4B F4 A8 C4 27 A1 F0 B2
 8D BB 60 E0 AC 64 F9 73 AA 9E 05 9A 86 5B 9E 2C
 02 2A ED EA 63 D6 6B 1E 53 CD 52 F8 F9 97 03 D1
 80 77 5D 54 71 4D 6C CB B5 40 56 57 CA 6B CE F8
 2E C2 3C 84 00 17 FA C4 22 C8 09 A7 53 C3 87 35
 3B 90 E3 7D 77 84 5B 40 B9 71 47 32 AA 03 BB B5
 4C E7 13 A4 AD 7E 43 F2 7F 3F 84 37 CE 2F 5E FA
 68 8D 03 B3 E5 1B F8 AE 57 9A 67 B2 7C 4D 00 2A
 BD D3 0D E0 C3 8B 6D E5 1F 7E E2 AA AA DA 92 AE
 96 03 69 1B 1E 0A 15 26 84 A4 F2 A0 38 B8 69 AB
 41 CD C2 29 19 FA F0 C9 F3 80 F9 42 98 CE A1 C1
 93 7B 05 D8 74 2C 1D EF 8F BA 6A CD 27 54 04 97
 DE 1A 14 CD A4 5D 6B 4D 54 6F 2E 8B 24 94 50 C6
 60 95 EA 92 D7 74 95 09 56 3A 06 8D F2 70 F7 3F
 6F 70 AC EB 73 D3 AA A2 FD F5 9C ED AC 64 85 1E
 97 5D CF E1 41 3A 6D B0 B1 81 CD 9B B9 8A 67 31
 5D 96 9B 2E 89 89 69 6B 1D 22 CB 9E A1 A3 50 8D
 5D DE 6F BA 93 E9 5F 15 1C 75 63 7B 17 FC 58 EF
 65 F1 51 95 84 4C 3A 3B DB 83 32 92 4E 15 BA CF
 0B 8E BD 03 36 0D 7A D9 59 7E D2 A5 6C 01 E7 7D
 FC DA AE BB FF 7A 00 48 D0 E0 10 00 FA 14 6A 56
 EC 21 3B 27 02 6A CE CD B0 BE C4 7C AA B3 6D E4
 AF DA BE 49 1B 8A 0C 3C 1D AC DA F2 93 01 0D 6C
 18 18 14 57 C9 97 E2 06 FD 78 83 8A B2 6E A6 80
 E2 29 10 41 6C CB 3A 8D DC EA A3 CF 1B C6 49 72
 05 2A F0 BC A9 B3 79 44 EC 56 B8 33 B4 59 54 45
 38 EE C3 F1 A7 51 70 8B E8 2A 8E CC 11 AB 34 F7
 0E CF 8A C2 B6 83 D1 9D 7C 7A 8E E2 A7 A4 43 82
 F8 0B 9B 26 78 D6 78 8A 0D 12 DA 2D 67 F5 32 32
 8B 38 59 7A AC 93 7B 83 C5 55 F5 F7 01 17 89 58
 87 24 A9 4D FB 07 CB 14 86 96 A2 DB 2F 96 89 B2
 C5 94 CE CE B5 19 90 86 6A FF 85 F9 62 31 8E C1
 2F 2A 55 DA 38 4C 91 F1 11 96 27 F0 7C CA D3 62
 F4 57 A5 88 F0 44 29 FE 9E A7 FD CD 98 74 00 04
 04 DD 4A 7D 6A A9 FD ED C9 AA 40 9A 16 31 2D 6C
 C3 AE BE 15 09 84 81 A2 B0 C4 BA E0 D1 A2 C6 EE
 FD 76 94 3E 18 8A 0F 10 A1 A7 06 FC EA 70 77 35
 9F DF 7A 5D FD CE CA D5 15 C7 6D E6 EB 78 6F E8
 BC 96 BF 1D 78 B1 C4 DB 25 3D CE B1 9B 8A 52 B1
 52 83 0E 0C 48 AF AC 8D 1F BD 55 6C 9D 24 B9 F9
 36 98 8C DC 8E 1E 2A B7 28 49 93 15 BD 10 9B 57
 D8 84 8B 93 F1 F0 9D FA 59 04 E3 A2 29 76 AB 95
 09 6B BD B6 DB 9C C6 05 F3 5C A8 47 B4 6F 44 25
 1D 96 99 E8 E3 12 9F E2 DA 2A 72 F5 67 1C 80 84
 BD A5 FB 3F 99 B7 5B 8F 21 4A 9E 6C 38 4C 0B F9
 D8 3F 2C DC 13 49 55 7D EE 8A CA 71 41 F7 02 1B
 D9 A6 23 C2 B7 6B 82 3C C1 7E 7F 12 73 DA 4C 85
 94 A1 F1 29 61 11 6D 9F CC 23 B4 94 39 8A A3 14
 99 61 6F C8 E9 B7 C8 13 F4 E2 BA 86 1B 1C 43 0F
 EE 54 37 63 98 52 02 72 98 76 F9 0D CA EB 71 33
 D6 3C DD 68 D1 DF 88 89 8A 3D 14 87 B5 33 55 B2
 BB F1 02 F9 10 DC 80 03 90 5D 73 5A CE BD EE E9
 69 4F 84 D7 C8 5E 32 33 ED 46 B2 7C AD 67 67 49
 52 88 5D 0D A1 F7 14 F9 69 EC DC 64 08 65 1A C3
 F9 84 2D 44 48 50 75 50 EE 45 F4 5B 36 B5 A7 52
 38 32 21 F2 03 13 B8 BE A2 84 E7 30 60 90 26 6A
 71 20 65 94 FA 36 3C F0 EC 5B 96 32 2D 8B 6A F9
 67 28 4E 64 79 65 ED 74 B3 28 94 3A 83 E4 8E 59
 AE C4 4C EE 02 BD 75 02 7C 4B 46 45 7E B6 8A 79
 C7 AD 7A 05 B5 34 9C C8 8E 4A AF 71 9E FC FB C0
 B3 49 4F 08 94 56 D3 BD 58 75 A2 7F 67 E8 BC E7
 BB BD 83 9B DA 54 0B 6F 30 3A 64 F8 DA 59 1F 11
 0A 03 D2 B5 6A 77 B2 C3 55 1A 09 F1 35 36 79 BD
 D0 C8 60 BC 35 AB 82 EF 01 C2 37 17 35 A2 06 7B
 2F 3D 04 8C 57 21 46 D8 E3 4B 6A B4 BC 13 DA 1A
 84 CC CC 98 53 03 39 80 66 A0 DF 1A AD E7 F4 4B
 70 7B 89 20 C7 FA 01 9D 3B F4 6A BC FC 6A DC 1E
 FD 0E 68 D6 67 76 37 95 A3 6B 39 CF 53 AF 34 F6
 21 9E B9 FF 53 08 CA 20 86 1C 8A 41 1C DC C4 86
 63 7F 21 69 24 C8 4D 1B CC AD EA 71 67 09 CF 11
 EC 90 20 8B 5C C7 5F FF 0A A8 FA 1E B1 65 B2 A7
 C7 58 2D 3E 18 66 36 B7 93 0A BB 61 BE 21 E2 E8
 AA 40 4E 4E FE D0 8D E3 72 AC CF EF 5C 20 62 84
 8F 8D 9B 09 58 B9 17 92 72 AA 06 65 14 29 48 0D
 C5 01 63 CE AD A6 96 C4 97 27 7F 2D 53 7A 7F D3
 01 FF 67 4C 9B 55 48 C0 0E 6E 4D 1C 28 4D 6B 78
 8C FE DE 65 B6 F0 AB A9 F2 EE 64 B5 DD F9 1C F2
 18 E0 11 87 A3 14 C9 1B 5C 38 58 09 0F 26 F4 B8
 6D 05 54 BB 7D BB FF 67 D7 23 BB 72 1B F3 40 1C
 72 82 B6 18 34 A6 2D 7B 5C 94 77 3E 3D 15 7B CA
 CC D5 14 C4 C6 1A 50 7F 97 6D 66 6F DF AE 9B 80
 16 24 B0 D0 61 49 79 20 92 BE 60 9B 18 38 3E 05
 C5 B7 E7 71 F3 3E BA 6C C6 4B F7 F7 6C 78 3C D4
 87 84 37 54 61 52 FD 04 66 29 8B 1D BE F0 DF CE
 C0 74 AC EA 9B 00 9B AA 0F 94 E0 B0 C9 7B 56 7C
 46 3A 98 2A 02 E3 BD 28 20 CE A6 BE BB 81 52 5E
 56 F2 14 07 2D 8E C7 E3 C1 F8 59 15 66 09 63 42
 4F 3E 4C D5 78 64 1C 6E AC CA 9F 6C 35 4D 67 77
 04 12 07 C0 CF B9 E7 F1 CB 9A E7 E6 30 32 35 9F
 CF 71 38 0D 78 09 5D 4D 59 54 EA C4 A1 B6 68 42
 E8 49 21 D3 BB 00 63 BB CC BD B1 A1 08 4E 91 8A
 FB FA CE 58 79 D3 A3 3B D2 0B 4D 37 33 42 13 0D
 B8 26 02 17 3F CC 57 32 5F 2C 82 0E 98 31 D3 43
 2D 51 9B C8 6C 0D C5 A0 0F 7F AA FE F5 3D 47 67
 53 5A EB F4 9F FF 24 00 EE 21 30 9F 12 FA 0E 76
 E2 D0 F7 A1 0F 2F 2F 27 7F 86 AD 1C 2E AA FC F3
 D6 79 E4 B7 D8 22 51 07 36 70 B8 75 82 A6 53 FC
 0C F9 B8 97 77 59 30 F7 3E C2 3A B2 11 C8 92 01
 36 8F A3 F4 70 43 0F 10 72 53 C1 2B 33 2A 80 F4
 65 C8 E6 55 ED 99 EF 89 12 65 D5 05 2E A1 D5 F5
 CE 70 24 B4 93 C7 2E A2 F5 2D 72 DE 41 08 DA 74
 8A BB 29 8D DB 55 5D BD 99 E8 4D 20 C8 89 57 25
 56 4B EB CD D9 1C 3A 1B 84 F6 7E B1 F9 AA FB 0F
 33 D9 D5 8D 59 C3 58 B2 8D E7 6A 9C 4B 4E 83 1E
 A0 06 75 39 FB 13 3A BB 4C F3 95 73 1A 44 8E 31
 0E E9 A6 73 EE 55 6E E3 84 AA C9 38 83 3C D4 5E
 44 9B C5 90 9A BB 58 51 67 70 AE 60 10 A9 95 2C
 76 B9 E5 08 DA 39 3D 24 99 45 5B AF 94 58 77 08
 23 46 73 58 EC 9F CD CF 79 1B C5 D5 D6 A2 BA BF
 6A BD 69 DB 61 F1 10 D8 1B 0C F8 5B B0 65 90 D6
 65 48 D8 52 09 8C 0C D9 9D E0 DF 97 B7 39 08 EE
 27 D7 7F FD B8 C5 3D 78 DB 81 31 B2 8A C0 F0 46
 44 71 00 15 DD CB 49 03 B9 16 40 5B 00 34 95 9F
 6F 86 65 F1 AC 32 95 8B E0 B1 05 B6 CE 98 40 EF
 FC 35 1A 09 9C 2E D8 B1 68 7A 0A E7 62 27 A9 4B
 EC 22 2D 51 2F 0C 18 5E F6 63 88 0C 7C F2 60 56
 45 CD 95 CA 4D DB F4 92 6D 1A C7 10 36 39 7E F6
 D7 77 7F 8C 36 86 0C 32 4C 63 13 16 12 BD A4 58
 D7 BA C3 54 0E C3 19 BA 2E 97 FB 17 C7 4B F8 EC
 1C C5 89 3E A0 65 09 C3 67 67 5F 60 F0 40 A1 12
 E3 C0 D6 59 1E 30 78 2B A5 4E 54 A2 72 63 B0 C8
 BC D1 D2 80 F4 BE 1B 55 AD 42 EC E3 9A EF 11 6C
 8D 7D 62 50 DF 3A 8E AD 72 3E A1 A0 74 B6 82 5A
 E8 9F 35 85 62 13 DF EF 9A B2 29 A2 3E A8 7B F7
 44 2B AD 2A 7A B7 6D 47 1F B5 24 E8 88 06 12 EB
 5A C6 E9 C0 3C 34 04 DA 78 40 3A B0 D2 91 06 3E
 21 0F 25 5B 7D 07 CA 15 49 2F 07 2A 83 2C D4 D0
 AE 50 74 0C 65 2C 52 AF 06 56 5B 31 83 55 1F EF
 4F 15 01 F3 47 9F 72 9E C5 78 D8 E9 45 89 35 BD
 EF 8D AF 70 0F DB 3E 96 B0 C9 92 A7 32 E5 CA 3E
 B3 9F 90 0E 70 F6 8D 28 50 54 19 A9 3B C9 CC D0
 96 E7 7D DA EA 50 AD 96 88 06 26 9C 54 89 12 D5
 FB B6 4B E6 2C B7 C6 5A 11 99 29 DE 67 7C 7D D0
 69 52 D5 85 99 8C CC 13 F4 9E 02 41 07 71 53 79
 66 6F E5 CB DE 17 CA 5A 56 C8 E4 A1 FE 22 88 B2
 4D C3 DC E1 C3 7A 5F 90 33 2D 28 EC 72 88 1E B7
 9C 2C 48 2F C4 4F DF 67 9E 07 78 CF AF 4D FC 75
 6C 24 52 04 3E C7 6F CE C6 DD 39 03 14 17 6D 5F
 0D 96 27 4E AD FE F9 6A F4 02 7F 4D 1C B9 7B 89
 82 A5 08 D8 1F 97 DD 96 17 61 39 77 18 33 1D 9F
 65 1F 3C E6 76 13 90 59 99 46 FA CD E5 AE DB C5
 82 29 31 1E 20 89 9D C3 F9 21 45 73 AF D3 59 8A
 C1 FC 85 6E 27 22 7F ED 82 82 6C 21 56 AB 5A 1F
 BE F4 44 D7 A1 DB 26 9A 3E E9 E2 9A 38 4B 4D 8A
 8D AF 92 01 5D 06 46 E1 B4 5B 75 97 85 6F 32 7D
 2A DE 10 3B BA 81 6E C6 6B 99 03 B4 4D 2B A9 06
 9B 1A F6 D3 28 99 74 1E F4 B4 48 EB CF F2 4C 93
 14 C4 57 F9 FA BC 78 87 1B 57 F2 3F BF 17 A2 25
 31 5D B9 3B 11 5A 31 A1 64 DC 5D DE 84 E6 A9 D0
 F6 95 46 9E 15 93 93 C1 EE B3 2F E8 12 FE 0F D6
 57 5D 0A ED 35 FF 81 A8 B1 C3 99 6B AE 11 39 B8
 DE 94 3F EA 40 5E B8 9A 29 CA C9 0E 4D F6 48 30
 AB CC 54 C9 B2 2F 1A 59 D0 74 7D BD 3B AE 1B 80
 2D 16 58 76 51 44 F9 FD 49 2C A7 DD B7 28 EE 79
 2D E5 C4 7C B3 6A 6B 29 13 D7 F8 C9 73 E0 68 82
 9A F4 78 15 CE 7A FF 9E 0F 49 58 15 6B 3C 6D 4F
 BA ED 04 EB 2D 7A 33 05 F0 12 67 66 E0 DB D4 F5
 AB D9 7B 8C 90 A7 94 7D F8 B0 7B 75 63 38 89 CE
 95 D9 C8 AF E6 E1 11 D9 44 01 4F BB E9 5B D8 7D
 DE FB 2E 35 C7 9E 58 D4 B0 52 56 4D 26 B5 1C 8C
 EF DF B6 C1 39 44 14 82 28 7B 5C 6F CE 9C 2D A3
 E8 35 2A E8 7F 37 B8 19 46 47 D8 3E 13 82 0D F3
 70 50 62 F9 08 8C 32 DB 69 01 FF 7A 3F EB C7 77
 A4 7D 3C 70 D3 61 1F EC F5 6B 86 4D 18 74 86 4E
 BB 00 94 B9 9F BC 44 29 7B D5 8A 0D 22 F7 D3 BC
 6F 76 96 9F 25 36 7B 56 E1 ED 1B 07 76 CE FB 08
 A9 43 A4 30 DC F3 A2 88 80 7B AC 90 52 1A 0D 8B
 39 3C 00 3A 5B AF 27 FC DC 2E 36 93 0E 3F 49 D8
 DB 34 7F 29 59 07 0F 42 15 C0 BC 96 5C 38 F0 89
 EC 19 A9 F8 0F 2F 9B D5
* End 3129150006 2985154229