* LTspice Encrypted File
* 
* This encrypted file has been supplied by a 3rd
* party vendor that does not wish to publicize
* the technology used to implement this library.
* 
* Permission is granted to use this file for
* simulations but not to reverse engineer its
* contents.
* 
* Begin:
 91 6E 87 45 6E 79 E9 6E 97 BC D4 CB EA 60 C3 69
 0C 26 21 0C 8C 18 1F 27 15 95 85 8F E9 F4 56 EE
 D6 F3 86 FF 69 DF C9 C9 E3 04 EC 17 61 B5 56 F6
 F3 10 AF 9B 5B 8E E3 AE 44 F7 C5 8E D2 90 2F 5A
 F6 1E 9E 97 62 38 BB 1B 2D 98 B8 5E 2B D2 39 20
 C8 7F 27 69 68 5B E7 AE CA 0A 46 9F 97 EF ED ED
 64 88 49 5D E9 08 C6 B3 88 FA 90 59 19 9E 8A C8
 6C 3C B2 90 2E 8E E1 85 F0 D8 60 12 03 E2 F0 64
 25 06 A2 CA C8 87 7D 00 56 7D D4 B3 EC 52 61 5F
 A2 0E 12 50 72 42 05 2A 75 2F B8 F1 96 11 A3 90
 85 96 11 91 6F 6A F7 94 F0 61 7F 83 4B 63 C3 62
 59 79 B1 09 0A 78 EA EE 0B A7 82 FE 33 5C 8A 58
 5B 10 BE 4F 69 43 38 FB 4B 33 98 3F 57 6A 4A B3
 44 12 C5 FC 08 75 E6 9D A6 98 03 6B BE 5B 80 2F
 AC 4A FB 0C 3E 40 75 1F B4 B6 B2 4E A3 50 86 CC
 02 72 02 E3 5E DB 32 95 04 1B EB A9 33 18 EA 32
 5D 76 43 C7 CA C7 65 2E 5B AF 16 21 5B DB 50 CF
 CB DC 2F AA 08 C3 6D 78 DD 28 8B 20 C0 A1 57 1F
 20 24 B9 79 D4 E2 16 8A 2B 6D 84 C2 7A A5 D8 97
 00 3D 11 55 03 84 FF 1E DE D8 FF 2A 99 04 00 0E
 F5 32 E7 15 E6 23 17 2C 86 3E 32 74 3E 9C 9B 3C
 38 6C D6 78 8B 41 2D 1B 20 15 18 60 9D C1 47 FE
 9E A9 E4 46 EA 46 B7 88 2A 84 A6 69 64 69 0E E1
 00 15 50 18 F9 6C F1 95 87 1E 7F 53 31 66 B2 9C
 CB 5E 44 CE 68 8E 15 2E 73 00 69 75 1A C3 F6 EB
 E8 8B DD 22 85 C7 1F 73 BA 18 B9 D0 25 F1 87 83
 9B E7 FF 3A 63 F3 BB 0B BD 93 2F 7F 20 0E 9F 66
 03 6C 78 5C AE 2A F4 8C 6F D3 9D FA CF F1 09 FE
 5C 5C F5 8C 85 FF 57 4A 6A FF 6F AF 00 94 C7 C7
 E6 E4 F5 D3 64 C8 C2 6A 4E 82 5B AA BC 97 0A A1
 44 62 22 8C E7 06 BB 1C D6 D1 99 EC 14 74 FC BE
 C2 80 21 8D 25 E5 EE F0 6A A4 45 D2 0E 04 FC 61
 1C EC E0 6B 8D 61 ED B7 79 81 92 B8 23 F8 4F 14
 D5 2B 2C CB 64 E5 0D B1 5D 4F 17 AB B3 80 26 D8
 D8 D7 FB 93 F8 1D CB B5 96 0C 71 39 3E 1F 4D 5B
 3D 60 EE 73 8B C9 08 A6 F4 10 C0 2A CD 59 7F 7F
 9E 8B A6 71 96 FA 6D EB 32 A1 80 E6 B1 FE 43 D5
 93 9B D9 C5 73 8B 9B 2A A6 3E 5A 27 90 16 DC 0D
 C9 BE 79 C5 E7 33 5C 02 A6 A8 1F 0E 08 EF 6B 77
 D0 D2 2E 1B F9 C0 C9 DA D8 A4 98 56 D4 70 9C 82
 C7 83 9B 99 40 5E AD B6 A8 07 73 22 2C B4 3C F1
 F3 BE 25 0C C5 6A 81 EE 6C 81 95 6F 06 13 10 5E
 E0 41 E0 DB B6 C4 1E B2 5B 5A 30 8B F9 C3 44 9D
 69 AD 42 E3 C9 3B 51 94 9C 16 F2 2A A7 12 DC D2
 CB 46 DD A0 CB 28 B5 69 85 F4 90 45 1F 57 48 24
 D1 39 F5 5C AB FA 2F EB 5E 70 93 5F DF 93 2F 2B
 70 92 1F A1 84 50 EE 78 7C 20 FF 2B 2C C3 1A 4F
 5F 1A DB AE E6 2F A3 DB 39 99 63 59 84 D7 CB 4E
 A1 B2 CE 6B 8A BD AF 5C 15 54 46 9A 40 D2 22 2F
 E0 F2 39 51 FF A5 FA 52 69 E3 C0 38 2C 4A 84 FC
 AD 5E FC C7 93 42 29 A0 69 44 1F 54 1A A0 19 05
 DC FE 39 C1 BD CF AD FB 5C BC 30 1C E4 98 BA E0
 45 F6 C9 FE EF BC 6E 16 F4 68 61 37 A6 DB 00 C8
 B5 4C 4F B1 B8 77 CE 0B 80 BB DF 77 F8 E3 12 B0
 7B A2 CA 6A 6A 18 96 FA BC 94 3E 49 54 4F A3 FF
 44 D7 50 0C F6 65 9F 55 A6 E9 75 DE C1 64 1F 85
 3E A6 2F 87 75 5A 2A 2D 35 A3 5A 99 2C F1 78 AD
 C3 DC 88 34 05 5B F2 09 4F 4B 6B 63 A6 50 29 5F
 E3 FA F3 FD AA 04 37 6D 2C AD 45 FF DF 88 16 F0
 DE EC 39 E5 82 65 4F 37 B7 7A A5 83 37 9E E7 8B
 3A A8 76 DD E8 9E 2E 83 AF 92 03 A1 81 35 F7 E8
 46 E3 7E 94 8A 49 F5 BB EA D2 3F C3 54 70 5E 62
 D1 E3 FD 93 03 21 5B 63 98 12 9E 57 D8 81 24 CD
 62 65 0B F2 60 AD D4 F1 51 AE 22 6A C9 23 6C 5F
 B2 B6 21 C2 AC ED 05 74 07 F9 DF A5 04 DD AE 95
 31 92 D3 B1 F4 9A 37 A2 AA A6 67 45 29 3B 61 5F
 08 6F 5D 72 3B 59 61 74 FE 4D A8 EE 40 B7 90 7C
 9A A3 A1 95 98 6A 0B D2 E2 C5 8A D7 2F 09 3D 6F
 9E A7 93 0E AF E5 3B BC AD 43 6F DA 8C 9E 47 78
 01 A4 7F A5 41 CE D7 2B 4D 3D 63 79 D4 0F DF 03
 56 82 DD 47 DF 53 45 19 A1 0B 75 E8 31 8C D2 3B
 A7 22 82 67 DE F2 68 68 1E D2 0D A3 B4 14 C2 42
 91 ED 6C 4F 56 CA D9 8E 9F 13 67 C3 F7 73 55 98
 A1 B6 F7 2E 1E 0B 9F 59 FF 36 84 79 D6 FF 1D 76
 B2 43 C4 A7 FB 7A 56 E7 1C 48 33 05 78 FD 13 23
 43 BA B7 E4 54 18 E8 72 DD 0F C1 78 F7 83 9D E7
 D2 B3 47 10 B1 9B 98 37 C8 B7 9B 7E 18 C0 6C 9A
 A9 06 6B E5 A3 17 16 4B 9D 66 EA 11 67 EB EF 4E
 D1 47 3E 8C BE B4 BF CF 16 BA A7 03 35 5A CC 72
 EE 8B EF FD 33 26 3D BE DC C1 60 67 2E 7A A0 27
 7C 4B 71 65 51 34 60 74 79 2E BB 02 DA E9 97 B9
 88 2A 6F 71 0F 20 72 CF 70 A6 C5 44 E2 AE 47 A2
 82 F8 C3 AF F8 73 7F 7F D4 4E 98 89 B6 6A C2 DE
 3C 09 E8 62 50 9D 41 CA 00 22 13 30 CF 31 EC 83
 39 FC 35 5D DA 41 28 60 1E 06 F3 AE AF DC A6 EA
 02 AC 6A 2A 1F 4E DC FF 88 42 2E 71 28 BC 29 9B
 C6 A2 8A 9D A5 B3 62 58 15 68 BB 8A CD 3E 72 B7
 C5 49 A9 6E 38 84 13 E3 3A BF 8B B8 EC C7 EC AA
 2C 86 E2 96 DA 14 C5 86 6C AD A1 75 32 55 BA 32
 64 1F 68 86 92 3F 04 8E A8 58 C4 4B F7 E4 1D E9
 FD 5A CC 62 68 88 11 AD B1 82 C8 34 94 37 AF 3E
 AE 56 4F CC 5B C7 EB 41 E0 1F 0F 64 78 B3 8E B8
 4F E2 A7 3B 42 F1 F8 C9 D2 AD B6 2F E0 D8 EA 1A
 01 E2 1B DF 9E AF 36 52 10 11 60 E0 C1 63 44 47
 D9 E9 55 2C B7 28 F9 DF 26 99 74 D1 67 40 05 B9
 71 C8 F3 77 8C BA 10 29 02 5A B0 34 AF 81 8A F5
 7B E4 8E 76 84 69 31 28 B1 C1 A9 D1 09 1F 34 D6
 66 3C EA 35 BC 8C B9 61 10 35 84 22 51 02 B6 38
 49 CF AC 54 E0 CD 93 21 68 F8 54 24 3D C6 F8 53
 20 B2 C3 73 B6 73 82 83 8F 8D 23 A8 83 F4 63 71
 E3 9E FF BF C7 E1 83 67 07 CB C6 AE 3D 13 B7 87
 5A D8 C5 07 4D 77 02 27 A5 FA 78 FE EC 36 13 9F
 D8 4F 1E F5 50 8A FB 59 B5 EC 2B 13 04 08 65 83
 DF 4F 44 D6 13 D5 AC B6 DF 3B BB AB A6 71 49 91
 81 E4 F1 8D B5 E5 2D BD 85 F9 F0 76 8F 5A DC 08
 FE 3B 91 13 CD DF 6B 18 67 7E 88 E7 BC 14 1D DF
 E9 BB E7 79 09 33 8A 73 77 71 81 36 CE B2 CB FE
 7A DB 92 10 CC 1A DB 7F F9 84 6E 24 40 ED 2D 79
 ED 35 CC 7B 90 10 74 3D C4 F8 15 D2 7B 86 B9 E1
 D2 A2 D6 16 B5 D5 FE C4 32 81 61 0F A9 4A D7 F0
 5B 28 57 0A 57 91 76 C2 BD B9 D5 8D 39 B8 48 E4
 0C E3 F8 3D F8 F7 DA 52 AB DA CA 14 40 10 07 0A
 6F BA 7F A1 38 25 40 01 AF F2 D2 04 BD 78 FC 54
 4D 39 D8 84 E4 39 34 5D AE 0D 46 7F 51 B9 A6 A6
 55 5E F6 71 DC 5C 06 D9 69 BB B2 74 96 BD 53 F2
 8A C1 A3 B3 30 8D C0 E0 7F 5D F6 B4 4E DA 34 FE
 EC 57 39 75 1F 14 AD 4A 2F 7C 51 6E F2 62 52 48
 1F A5 BA FF F3 D4 F9 B4 E9 F8 8A 02 72 53 70 07
 2B F7 BF 95 89 D9 64 77 98 FC DA F2 AE 23 B9 C5
 A9 50 5F 67 24 E1 A0 8A F4 42 3F F1 4B 39 6F 05
 B6 E4 82 F5 85 FA 35 EA 88 0F A4 7C C0 54 5E D9
 2A 5A E7 95 B0 09 E8 5A 5A 3B 27 8D BA D8 B2 57
 2A 38 D8 66 20 D8 DA 19 4A 8D 9D E0 36 57 95 D2
 AA ED DA 4F 99 F7 EF 91 8C FD 08 64 BE 8E 7F 7A
 C8 77 DD 3E 8A D4 57 04 57 D3 01 1B FC 76 82 6D
 BB 21 22 F3 35 44 38 6C E8 BF A5 B9 17 F2 D5 FB
 A9 D8 D7 4A DE 11 A0 AC FA C1 15 64 82 C6 FE DC
 D6 08 83 E5 6F 6B ED AB 97 2D 39 BB 09 8C 0C 8F
 D5 ED E9 EE C6 08 FD B3 43 73 AF EB D1 AE 4F 95
 86 B2 6B FC B4 B9 4C D1 A1 78 2F 41 06 B5 E2 6B
 25 35 C3 30 69 E4 84 0F 1F A3 AC 98 FA F5 1E 56
 5B CB CE 42 F9 88 CD F1 51 68 56 7C 59 87 CE 8C
 DB 0E B0 93 0F 44 9C C0 35 4E 56 4D DC 7B 86 E4
 01 F6 FE 78 90 28 E3 07 3B 03 50 47 59 30 EF C4
 AC 55 CD 6B 5E 7C 88 04 94 85 E3 94 BF BF 52 DA
 2C 7A 05 88 07 3E 17 67 C9 98 22 6C 3A 3B 83 20
 6A 60 15 D9 16 1C 37 BE D1 2F A3 38 69 F2 F4 53
 6E FE 0E 98 FD FE 72 FE 5B 94 4D DB A6 36 48 94
 61 E8 41 A0 3D 29 5C 8F 41 12 71 16 C1 6F 27 5A
 80 4D D7 3D 4B 9B 8C 85 65 26 D1 6B 1C D2 B5 65
 0D B3 7A 74 02 8D 4A 25 59 D2 F1 FD 54 01 F6 8A
 2C B1 BE 22 4D 64 26 53 BC 0C D4 83 E2 94 D4 AB
 FD 0D 5D 93 60 EB B6 90 09 50 D6 48 FC 09 6C AC
 F2 28 9A 85 74 3E 89 80 32 9C BA DE 7B 03 3C 09
 B8 07 A4 FF F8 ED 60 E5 BA E3 24 0B 59 0C 45 8B
 F5 59 89 C5 6D B3 9F E1 16 3F 9A 25 BF EA 90 45
 00 56 94 53 52 2E 31 6A CB 75 1C D7 CB 73 7E 18
 03 FC 29 86 DE 4D 62 BB 24 47 9A AB BC 8B 7B 8E
 11 F2 01 FE 23 DA 99 EC DD 7C D1 66 56 F6 EB 8E
 A2 24 AE AD 10 A5 2A 70 B5 DF BF 81 04 5C 1A DE
 64 4E 38 CC 0C 19 E7 AF 13 D5 2E 7A 7D E1 82 8A
 EB A1 87 7F EA F5 3A FB 92 46 A4 E3 62 78 42 A4
 93 D5 04 9F 73 7C 51 AE E6 5B 93 4D AA 4C 79 CF
 E0 0C C5 17 CC F5 01 1F 04 E8 4B C9 7C C8 09 5C
 E3 CF 5A 4F 03 55 EB 46 29 11 3E 6E BF 46 10 3B
 54 A1 EF 7E 59 09 1D 56 5B 02 FF 72 5A 49 EA A3
 C3 D9 E7 FB A0 1A D8 C4 BE 37 6F D9 20 EE 0E D5
 B2 CD 35 BF 03 8A 92 96 3C 24 A8 B1 B5 02 37 57
 CE F8 4D 73 4B EC 5B 76 5C 71 9F 90 1E D1 88 A5
 9D 43 30 70 10 E4 59 B2 67 B6 3B 3A A4 38 E1 9B
 7D D5 D0 61 A4 B7 F7 DC BD F9 D9 94 96 0C 79 D8
 5A D1 3A 9F CD DE 9D 59 51 42 9F 31 32 6A 7D 5C
 71 97 D5 18 74 CD 0F BD F7 5C EB 70 B3 9F B5 DE
 AB 47 05 D2 7F 6E 38 1C AC A3 CA 77 9A CE 4F E5
 37 54 33 0F FF 58 88 35 4E EA D3 03 25 2D AB 46
 F5 3B 6E 31 4F 99 20 0D 3B 64 6F 90 63 60 76 D0
 5E BC D3 B2 C6 0F 39 9E 69 52 6B DD 50 F1 20 ED
 78 50 A1 78 58 42 0B 52 33 DE E8 D4 A3 19 EA 2B
 78 B5 A3 45 2C 04 55 1D 6D C0 2B 45 F4 33 C8 48
 9D 71 46 62 05 5E 83 48 72 69 FC 0F F0 47 13 1E
 88 C8 4C DD FB 53 9B 47 D2 62 C3 EA 45 0F 62 EF
 58 60 79 0D 78 ED 25 D2 76 BA 53 1A 4E 84 BB 40
 07 47 2C A9 30 72 9C 8A 1E AA 6C 63 70 FF 05 4E
 9B 3F CC 56 3B FC 0B 24 4A 16 A1 60 25 CD B8 39
 5B 3A DC 21 6D A2 F9 CD A7 A5 54 17 E7 AE 10 71
 27 DD 42 DF E6 D5 B1 F6 A5 12 D3 F3 3A 44 57 A2
 C8 06 F5 B4 ED B6 EC FE 96 AC E3 57 8F 09 42 AA
 BC 97 B5 3B 81 FC A3 EF 89 B9 4D 89 E1 BF ED A9
 5E AB 85 BC 90 2E 3D 5D 2A BA 3F 17 9F 73 DB 24
 B5 42 A4 20 32 9A E5 94 58 BB 75 F6 87 FE 47 06
 0E 24 79 69 4C 99 DE 91 10 69 95 D7 A9 78 8E 53
 65 CA A4 46 67 81 17 09 F6 19 7F 43 F3 04 E3 C6
 84 09 91 63 D3 7E BE 81 09 3C 83 FB 66 3F 9E 53
 0A FF 57 ED 75 BA 84 CA B1 57 A1 8A 27 6D 32 68
 90 2F A8 18 BE E4 89 B0 8E EF BB A0 6D 5A 02 9B
 E9 D6 05 9B 05 5A E9 67 AD 17 FD 07 C7 16 A5 0D
 47 70 E5 C1 C7 96 DC AE B8 3F 7E EE 0A 0D 39 19
 49 50 FF 20 3B 3A F5 6F CD EA A8 F4 11 27 09 27
 F3 05 7A 14 7E 99 4B 78 06 D7 C7 BC E9 72 96 0C
 DC 00 2A A2 8C 86 51 77 00 67 2B 75 44 3C 1E F9
 DD 38 0D 6A C9 00 B2 95 F6 A0 56 17 D6 F7 8F E6
 32 6C 83 66 8D 92 31 48 6A 1F 59 9B E0 92 C5 13
 93 D8 27 BB DC 04 15 1E AC A4 8D 5F 44 C3 17 4E
 3F 06 CC 04 51 B3 B9 76 EC 48 85 F2 00 FA 0A DE
 4E F4 86 E7 09 4A D8 1A 29 BF CC 72 BC 1B 4D B4
 D1 26 28 98 66 11 35 AF 13 69 C2 ED A9 BC 87 46
 AE 6A 04 4A 11 82 60 8F A4 94 75 69 CA 6B 3F 60
 93 D6 8A 6D C7 3B 81 61 2B D1 F2 9B 5D 89 52 23
 58 F8 8A 65 AD 41 52 F3 60 9E 5A 6F AD 13 F5 C8
 C4 DB E9 11 59 B4 5B 00 51 86 EB 3C A8 1E 9A 93
 EE D7 28 9F 6A 88 97 61 29 9D 88 BD 5B 2B 6F D7
 48 5D 04 15 71 A9 38 24 BE E1 64 AA 1D AD 4F CC
 A4 F7 F8 80 D5 26 DD F1 B9 EF EF 51 22 D0 A4 07
 2A 41 80 C1 D3 B6 A9 23 2F 6C 8E 61 E3 3A 61 EA
 86 F6 DA 38 0F AF 21 9E 82 F4 A8 58 B9 C5 3F 22
 68 9C D1 AE DF CD BA F0 C0 60 2C 66 7E 6B 21 39
 C4 5B AB F7 9E 6F 65 21 BF 92 4A 9C 5B 2E 41 9C
 9B 7B 92 48 9F 91 A6 A2 31 83 59 AB EA C2 F3 5B
 F5 F7 1A 9C 83 8A 4C 00 35 1A 70 D8 82 E7 79 13
 89 FA 7D 63 95 B1 46 DF 90 B8 43 87 0A C1 CC A2
 61 FA F5 75 51 AF 69 58 71 F4 4D 56 14 A2 A9 76
 96 04 AA DE AC 82 0E 5B 04 57 69 45 BA 9E 86 D8
 FB 7B 39 25 05 F0 D1 E7 EB 9D FE D1 C8 AF D2 F6
 BE 93 73 06 6C B2 A1 74 0E 8A 89 81 D8 71 88 2B
 80 9E D5 B6 A7 B7 D8 97 3B BD 4F 0E 1D 88 0C 8A
 61 DF C8 10 C0 0B 04 CB E1 02 8D E2 36 EB C3 E6
 9C AB 15 00 E9 5C 0B A7 76 D6 CF 4E D8 A1 92 9A
 1C A8 71 74 03 57 A1 DB 1A 34 8F EA FF 82 CD 9F
 ED 7B 69 EA 56 66 4E AC C6 4E 7D 5F 78 54 A9 59
 EB C5 D5 C9 AB 7F 87 2B EF FE 65 B5 75 EC E2 00
 F5 F8 0D 5A D9 AB CF 51 11 57 F1 E8 87 44 D6 3B
 0B 55 0E AA 04 CD 5B F3 24 22 F4 DC FD E3 7A F2
 4A F6 F3 28 63 38 B6 2B 9B 6B F8 2D 80 AD 09 24
 53 DA 30 F7 A0 28 2F 75 6C EF F9 54 82 F2 E2 A8
 B7 C0 9C A0 89 3F 35 52 8D 13 6E C9 DE 82 D2 5E
 30 D3 9B 82 FA B8 52 53 84 AD 49 68 6D C8 F5 C9
 EA 7A 0F 92 58 5F EB 6B C3 49 56 88 40 FF C4 29
 8D 39 9C 7F AE D0 95 34 25 40 B2 EE 03 B8 D3 3D
 90 A1 8E 65 A3 C6 97 53 51 95 15 7E 3F D2 B1 82
 66 9A 0A 66 C6 BC 36 E7 60 34 F7 99 AA B5 FD 38
 A0 76 A0 6D 83 BB AC AD 0E 66 4E 1A 8D 55 BB 61
 BD 90 97 E4 04 63 17 36 F6 AF C9 96 D4 F2 96 55
 98 1A 27 B5 50 B0 43 26 8B 2E 9C 5E D7 3A 80 D5
 FA 22 E0 87 82 1F 6B 1F D6 72 87 06 EF 32 6F E3
 7A F2 83 6D AD 2B 0D 7D 1A 93 92 27 D2 F2 16 61
 37 D2 44 6C 66 6D 64 FD F4 4E C0 F1 B6 8E 33 D4
 0B 30 8F F9 35 EE 72 71 D1 CE 61 AC 62 3D 3D 56
 40 6F B1 AA 65 F3 A3 E7 99 0C AD 29 59 29 76 5C
 C9 1E 0A 8F DB B2 1D 24 A9 E0 A7 4D 02 3A 3E 51
 83 A9 A4 BF 69 8A A5 D6 B3 4B CD E1 88 31 E0 70
 CF BF F5 C8 07 43 8F 7C C8 32 0B 42 7D 3F E0 3E
 00 C7 ED DA AF E4 AC 61 54 99 B7 23 92 28 C1 86
 99 15 CC 40 1E B7 1C 0D 6F 32 E6 CE 09 FA 0A 78
 6D 78 7F 8E 1E 0D 5D 53 CE A1 68 9E 5C B1 18 9C
 B8 B0 0B F2 D3 8F E6 35 DA 02 DD 5F 73 07 E0 99
 D6 73 69 4D 2E 9A 7C 2D 3A 59 7B 5C D4 E5 B2 89
 30 A0 3B 7F DC 7F B4 84 81 17 9A AC 8C 47 E9 D4
 0B 81 27 4B A4 FE E7 E4 D4 AC 28 39 EA 91 AC FB
 BC 10 03 D0 50 AA A3 60 96 F7 A9 44 D8 20 A9 5B
 7E D7 50 62 F0 53 83 30 6D 4D A2 11 0D 02 8F 20
 1D 55 13 79 F9 C0 55 66 71 F5 01 84 3A 90 21 0F
 74 6C 55 FA 62 26 17 68 9B 15 E0 FB 8C 3D 4A 4A
 2B 7C A9 66 C1 44 AC 09 79 B3 02 57 EC EA 4C 67
 0F DC 87 2E 0B 17 64 E9 FC A6 37 07 15 A9 3A 21
 2E D8 21 02 54 55 3D B7 38 86 88 61 53 D1 4F F2
 EB D4 77 D5 30 33 E2 22 FF 7C C8 0A 91 01 DB B4
 C9 53 9E 69 78 6C 71 0C 29 40 75 5C 31 1E 95 FA
 AA FD 72 63 4F D2 D3 DA 17 62 56 B3 25 0C AD 77
 65 E9 13 44 DB 7B 50 D5 9D E1 A7 99 B1 E8 32 71
 21 14 6D DD B9 F6 E3 C2 9C 98 34 AE 9E 4A AF 48
 E0 2F BC C2 75 DC 37 2B 2B 56 E6 B3 0A CD 9C 32
 B6 BB 86 F8 09 E6 F5 2C E2 98 46 D2 DC EC EC 66
 45 0F C7 0A 5E 92 F8 13 B9 76 FA B3 21 F7 54 1B
 50 AD 8D D4 BB 08 B7 4C 21 83 2C 61 F1 CB AA 06
 D1 99 60 EE 2D 37 C9 6F 1A 3C C6 FB 4A 13 B1 F0
 39 A5 3B 9A 25 34 35 4C 18 4F 82 10 08 C9 13 C9
 9F 02 75 BB 2D D3 B5 12 D5 46 48 1E 6A 29 D7 27
 F0 C3 14 E7 97 BD D9 B6 6D FB 4A C3 BC 87 34 85
 76 5A EE CD 68 2F 70 CC AA 08 0A 07 7E A0 E5 86
 5C 7E 6F 5D 45 AC D1 03 E9 EC 1B 12 89 B8 2B B1
 BD 53 A9 E6 07 1F 29 0F B9 AE FF C3 EC C4 61 A2
 40 9B DC AF A4 8A A7 58 AF 22 5E 2A 97 7D EC 33
 5D 22 A3 63 EA 35 13 09 77 02 91 89 90 6E 18 57
 19 21 02 23 00 75 15 4E C5 9A E9 6E 13 11 40 B3
 37 E5 60 65 1D A0 2A 0C 46 32 99 61 B8 84 28 84
 17 01 D4 2C D8 2C 1A 80 16 85 A7 73 6D 8F 6D 3F
 01 29 C8 BE 3B D3 29 10 C9 B2 46 15 6F ED 07 16
 B4 2D AB 6D D7 72 67 88 6F D6 50 C5 D4 67 0F 6F
 7B DE 7F 93 10 5D BD 6E 62 98 91 28 E9 BE 68 FD
 32 F0 B4 66 B4 C8 38 9D 8D 1C E0 70 CF CE AF B1
 42 B2 82 4C 61 70 BD 47 7E C2 9E 9F 20 66 00 65
 BA C7 39 69 AE C9 D9 D1 E9 9A 30 DD B7 9A 7E 7F
 A3 BA 4D 5F 1C 5A D2 FA 40 3E AA 05 C1 64 69 CA
 C1 73 AE DA 5A 0F 01 E4 08 49 02 7A 35 D1 05 9F
 5B 16 7C E6 08 0A 89 E7 9C 80 0A 0A A1 E0 FB E4
 8C 2A BB 37 EF 78 28 AB 26 84 BB 77 B4 37 15 D7
 3B 34 01 BB D9 76 06 08 A7 4D E9 AD 6A B8 A5 DD
 B9 ED 6A DE AA E3 87 F8 80 67 6B 5B BA F1 6A 8C
 92 48 40 44 2B 1A 94 57 A9 C1 B9 2B 47 8F 3C 55
 99 5B 35 D0 FF 2A 0F D3 2E 09 2F 9B C7 AC 36 1F
 43 4B E6 DF C6 4B C3 EE B0 83 FA 10 F4 F4 54 A6
 39 B7 CA 5D 78 81 66 EB 70 84 C3 54 B3 40 48 67
 2D 3E 3E 83 17 73 69 7A AD EB C0 1C AB F5 C9 04
 7F 5C 3D 10 25 95 EA 6A 1D F6 67 09 4D 50 35 17
 94 7C A7 41 5E F4 B1 17 B7 5E 33 67 EE 18 FC D9
 EA 2F F5 EF D9 DB B7 EB C2 98 28 9D C2 A9 2A EE
 FB 25 B6 E5 DC E0 11 65 07 73 DD B7 17 FA 68 41
 BA A9 51 83 97 59 E6 96 E5 8F AA BC 0C EB 8B 1D
 55 67 1A 96 BF 42 2A 9E 09 B1 CC F9 B9 4A 3D B1
 8D FF BD 3A F2 2F 95 3E 7A 61 FB D5 E5 BC DB 7C
 DA EB 7A B8 2C 21 F9 E3 96 14 18 63 38 43 03 38
 6F 14 C1 BE 1D FE FA 6C 77 51 F9 8A 86 FF A4 E0
 9D 86 1C 8F 8C 08 DD 04 3B DC 84 CC 42 F3 8B 45
 FF 54 55 E1 6F 6F 2F 36 B7 2E 48 12 F1 97 D2 26
 F6 87 6D C8 1B ED E5 2C 77 CB CE 0F 2E 18 46 BF
 9A D1 40 90 BC E0 3A AF A6 F8 3A 73 77 7A A0 F2
 73 BD 54 51 40 78 54 46 A7 2E D3 A8 D8 74 F6 75
 73 8E 4A B5 C5 C0 A2 35 9E 69 86 72 AC 12 B8 BF
 C2 6E B1 E8 0A 0A 92 91 F0 6F 93 36 9F 7E 88 9E
 4A 07 E5 9F C1 17 89 CF 03 76 C1 AC A8 31 10 43
 DA 9F FA 82 17 12 39 51 E1 91 BD 36 2E C5 1C BD
 E4 A0 15 8F CE 97 30 38 36 3A D0 9B 3E FB 52 36
 FC 6F A6 0A 72 5F 75 33 33 12 51 58 2B 8D 43 1C
 D2 38 16 94 3D 63 21 1C E6 97 20 55 A3 36 7A E8
 14 BF 95 E3 FA F4 70 57 12 D1 71 F0 F3 9C 2C 52
 60 9A 39 ED 61 B5 55 10 3D 52 7E E4 A9 62 55 DD
 1A 6D 0E E2 10 97 2B 6A 9A A9 B4 74 2F BD 5C 8D
 F8 50 C2 6E 38 D6 DC F9 9B 2C 30 B7 35 9E 08 43
 07 B9 59 68 7F 94 16 A3 CD 98 B3 59 61 04 51 8C
 AE 6C CC 53 76 06 64 1F E3 06 9E E8 73 E1 8F 09
 CB B5 6C 74 37 F0 C6 04 4D 50 56 9B B5 94 7E 06
 46 F4 4C 2D 96 AB F3 3F 5D 68 7B AF C5 15 44 CA
 C0 48 E7 27 2B B8 66 AF 8C AC F3 FA 92 A1 73 9C
 78 91 C4 7A 8E 26 9A D4 5D DB 22 A1 E0 34 AE B8
 D7 E4 DE 81 96 73 EF B7 39 43 71 C5 6F D5 5C 9C
 A4 E6 70 09 FC B7 29 69 65 B0 54 25 1A 61 04 C2
 C0 FA 92 E1 83 35 84 A9 A6 A7 61 54 4F 52 9D 1B
 65 02 03 C6 16 C0 B0 7A D6 D0 78 21 5F D1 13 5B
 24 85 8B C9 EC 6D 63 14 A5 EA EB 49 4A E2 1C 44
 06 7F 2D AE D8 67 57 7D 1E F2 F0 B3 8B D7 C8 D0
 C5 0C 99 1D C5 B3 13 AB 35 0B 22 E6 82 DA A0 D2
 F4 F3 86 BD 19 73 1D 70 54 AB E6 EB 2A A8 F6 E6
 F2 A8 F2 8B 44 7C 28 7C 4C EF 75 FD 05 38 E1 AE
 C2 84 CC DF 9D 5A 78 A9 04 21 E8 04 88 70 F0 D4
 1A 75 22 C9 78 32 07 A0 B4 B4 18 90 D2 48 1B 13
 79 D9 6B 28 28 5E B6 89 FE 47 20 EA 9F DF 18 6F
 CE 06 67 DA 24 0C 68 78 7D BC C3 E0 7E 92 65 1E
 E6 CC 31 38 FF CA C5 17 29 1D 82 7F F9 11 EE 9B
 E6 41 37 9B 3E 89 E9 2C A7 53 10 EF BE 2D B4 E4
 C2 86 41 31 95 1A 65 71 88 F9 1C 8B 97 EE DC 73
 CB 30 AF CA 30 08 68 62 98 7C 18 EA 0D 54 2D F0
 99 1F 83 E6 C7 12 A8 78 FA F5 DD 95 FE 77 55 22
 7E 73 9F 8C F8 AE D2 A8 1F EB E7 CC 26 E0 70 9F
 6D CB 7E B6 84 E9 33 E2 19 5C B4 4F D8 67 73 55
 F5 52 E0 C9 D8 35 BF 95 BC BD 53 ED 1B 53 E5 8A
 5A 78 F6 71 25 56 82 1B A2 36 07 3E 9D 3C 1C 77
 51 60 1A 39 08 9D 32 E1 B8 F1 4E 6B 88 38 E8 13
 55 8A C3 F4 9C 0B 01 FA 07 9A 2A 80 F7 DD 9C B8
 EF 05 F6 7B 34 36 4F D6 DD B9 F0 F8 47 62 4B 8F
 1D 14 48 17 ED C9 15 5E 66 BB 12 71 75 63 20 32
 0E 30 B2 7B 44 E7 A0 03 1B 92 C4 63 AD B0 FD DD
 58 72 8D BD D7 AB C6 04 BB 88 F8 00 8C 4F 74 FD
 A1 7B B4 12 40 3E 95 33 1A 45 52 4C 2C 2C 0A 6A
 B4 D4 67 19 F2 25 3F 75 01 AE 62 5A 32 BB 5E 25
 92 2B 13 4B CF 56 7A A4 F2 2C 9E 9E DA A2 1D CF
 5C FA 42 AA F4 6B 52 45 62 A3 B0 27 E5 D7 25 17
 9B EC 36 83 0A C9 7F 8D B9 66 A7 59 E6 C1 2E 82
 B5 A9 0F E4 6F F8 0D 2B 42 36 BF 1D BE EC 7A 48
 BB 29 59 B7 62 2C 16 E3 D4 08 17 A7 50 3A 5E 72
 1E F9 D9 F9 EF B9 43 77 47 F6 AF 26 E1 5E FF 6D
 6D 5D B3 D9 45 EF 10 B1 C6 0F EE 5F 0C 63 74 CA
 36 59 14 16 DE D8 AF DD 52 E7 00 8B 8A 2F 7A 0F
 51 92 4C A8 CF CC 05 A3 4A 1A 5C 30 4E FA 04 1C
 2D FD 8D 3E 7E 07 45 84 5D 35 49 EF AA 18 AF 1E
 17 B7 38 84 6B 86 69 F7 32 43 E0 F5 4B 0B 5D 1E
 18 6A D7 DB AA FD AD 12 9D A1 36 5E C3 63 19 BD
 8B 89 35 CA 68 22 F6 28 17 96 EB E6 38 34 1C A4
 1F 7F 9C 96 52 CE 6B 7F 02 74 32 46 83 EC CD 64
 3E 3B A1 5E F9 CF 84 25 3E EF 56 E3 52 41 4B DB
 45 DC 79 DC A7 41 A0 EF F3 BD DB FE 82 48 98 AC
 8C CF 6C 19 5E 82 F7 FE B5 7C 4B D9 65 AC 4C 9D
 74 5B 13 E9 43 33 25 74 52 74 46 53 C9 23 D8 E0
 A7 DA CE B1 83 00 5C 1F 5B C2 44 56 A8 70 72 AE
 76 92 71 14 B4 19 EF CD 5D E8 1C 0F E4 95 F9 6D
 2F 36 81 50 A8 F9 03 0C 0F 1A 8D 19 59 C4 AF 48
 82 EA 48 5A AA 54 05 C8 A9 C8 24 0B 35 47 DC 2C
 19 6C B7 45 5E 10 73 43 D7 17 53 89 77 4C 5C 97
 24 3A FA 07 34 29 2F E6 D6 57 65 FD 24 12 EF FE
 3A 21 09 4A 4B F3 A9 7E B4 1B 22 55 56 EC BA 77
 96 60 2D 57 C5 18 3B 98 C0 7A B4 DE E5 D7 F3 04
 44 18 AC C7 68 1C EF 59 57 B2 92 BE E1 71 A2 2D
 79 D9 B9 4F E5 4A EF 3F C2 00 21 C2 55 DF DC 7D
 7C BA 65 33 F4 DA D1 EC
* End 3994299425 2454105732