* LTspice Encrypted File
* 
* This encrypted file has been supplied by a 3rd
* party vendor that does not wish to publicize
* the technology used to implement this library.
* 
* Permission is granted to use this file for
* simulations but not to reverse engineer its
* contents.
* 
* Begin:
 1C A0 FD 95 14 43 42 94 75 A5 76 7D 12 00 9A 17
 D0 0E C2 5B 60 9D 49 96 B1 88 C6 4B D0 42 AC AC
 51 A6 0E 6C 98 FC 5B 1D A6 C8 D2 BB 79 DC E8 E8
 21 20 26 20 35 BC 9E D9 DE F3 40 6F ED A8 DC D1
 3C A6 EC D3 64 0E 6B AC C3 87 D1 70 13 DE F9 83
 9F 84 40 82 7E A2 D5 6A E5 C0 DD 80 87 1D F8 4D
 39 D4 BD 62 B2 3C 35 05 CA D0 D1 AF 1A E3 9B CF
 37 98 1B 33 8E A2 81 BE 7C 32 45 0C DA F3 54 9C
 B8 C6 89 2F B8 E1 A3 C4 0D 04 55 37 E8 13 B0 02
 A5 ED 07 7D 67 84 41 3E 03 73 89 2D EC 6F C2 22
 52 A5 E1 0D F7 80 16 53 20 C7 87 02 3F 19 21 10
 1C 4C 6D 4B 5F 18 43 A6 94 69 1E 73 F5 4F E6 9F
 DE C0 DE 3B 49 39 BB 06 E0 64 2D 09 6C EB E9 9E
 B0 86 29 B2 09 B3 BB 1E 38 DE 0C 65 21 D0 C1 E5
 65 82 B6 9E 93 DA E4 E0 36 F6 DF EF 80 41 B3 F2
 40 98 56 A5 50 23 4C 5E FF 91 9E 0C 49 82 E2 02
 DD 67 7E 1F 87 10 6A 7E 2A C4 FD 05 EC 16 22 33
 89 7E 7C 53 8D 5F 1A 94 AD AC 19 D9 C2 2C AF 7A
 42 9D 04 9A B3 85 4D 6B B9 D8 80 69 71 D0 F4 C6
 B9 3A 2A C7 A4 78 4D DE A0 55 BE BB 91 AD 24 FE
 1A 2E 50 3B CC 9A A5 CE F9 1F 80 C5 79 F4 47 CC
 C5 23 78 BA 8A B6 C4 AA 82 48 6D D6 51 AE 70 6E
 3A 66 80 E3 2C C9 B1 BD 11 1A 83 CD CE 30 48 38
 73 84 59 32 37 1C 53 74 9B 14 AF 69 97 0E 3C C0
 CB F5 4D AD F7 18 15 FE 5C CD 88 8C FD DA 9A E1
 D1 B6 E4 07 D2 00 E1 A2 88 B4 13 02 5B E3 AF CF
 D9 88 59 48 7C 00 42 B7 3C 6E 20 45 AE D3 D6 1C
 79 15 2A 04 1F 33 1E 0D C2 3B 6C 0B E1 06 F7 9B
 1E B9 8E 7C 20 ED 5B 3B 78 E4 53 24 0A 0F 9B B6
 23 11 8B CC EC F3 DC 1D 79 D9 44 80 38 F4 C1 0E
 EE CB 8F 0A 0C CE 09 2D BE E3 25 14 B4 FA D6 9F
 6F 1D 9F 26 18 54 49 FF 1B DD AC 33 0F 5E 4A 04
 AF AB 76 D3 02 FB 26 D8 03 26 BC CF AA 87 2E 80
 DE F8 60 5C 17 92 4B 19 1E CA 76 F4 C4 06 81 F9
 B0 DA 06 34 9D 9E 2F 12 20 BE C1 CF 37 D9 96 2B
 C2 F0 12 8B F7 37 D2 B3 F9 E4 37 99 5B AE CF 43
 65 E0 88 00 0A E2 D1 F7 BB 08 5D 13 57 C5 D1 C8
 B5 CC 0D D5 92 52 DC 3B 25 08 DA 52 23 CF 11 9D
 3E 6F C4 88 91 14 ED 7B 6E E2 EC 9E F6 69 CE D0
 E5 AE ED EC C7 60 FA 35 7B 7F BE 08 47 D0 92 17
 AE DC F2 7A CF 4C A8 BF A9 BC B7 D8 F3 A5 71 CC
 B4 73 56 20 FE 0C 26 9A 6F D6 1F EE 17 11 C8 72
 E1 FB 60 70 25 E4 69 47 DD BC B6 A9 A8 DA 5A 43
 93 38 CF 48 12 17 E1 F8 A4 C7 A2 4C 94 98 35 38
 FB C7 FF 4F 4D BB 00 D1 2A 6A 8D F5 C3 35 EB 72
 F6 19 64 D1 BB 14 61 EE DA C6 5C 07 9C EB D1 F5
 99 4C 40 FE 4A 64 51 1C B7 4B 71 63 97 C6 55 BB
 CD 62 64 78 5C 97 D1 6B 5C 76 6E 8F D3 6C 88 28
 61 B5 C0 AF 5B FA BF 50 D5 4C 26 FE 2A BF 6C D1
 17 DF D0 F4 78 28 AD 1E CD A0 3A 37 7D 46 5D 0C
 EF F1 E9 CD 61 B6 A1 61 B2 8D B3 C5 B6 BB 4E F3
 66 08 46 D8 6C 69 1C 9A 37 F2 B5 53 3C DF AB 40
 7F AA 23 37 C9 D8 0D AF 93 12 7F 8B 90 C0 04 C7
 14 DE 8D D2 33 02 6C 20 1C D1 AE 90 8F C8 46 7B
 40 15 6B D0 3D 93 40 D7 7C 84 F7 07 2E 5F E0 F5
 72 56 A1 48 0D 8C D2 41 A5 5C 1F 17 EB 14 0F EE
 F5 D3 61 10 17 60 4F 4F D7 FF 6A 92 54 95 20 F1
 03 4A 45 43 1B BC 44 64 65 95 6B 31 05 B7 84 88
 C5 0F 84 5D B6 1E 19 0E F0 8A BA 6E 9A 65 A9 3F
 FE CC FE 85 87 DD 08 34 3E 82 E4 86 35 76 52 18
 BD E6 FF C2 34 EC 28 81 86 FA A7 89 C7 32 82 DF
 07 53 7E C8 6E 27 B3 B2 13 55 AA D6 31 FB BF F1
 0E F5 02 31 CB D6 74 71 28 FD F6 E7 55 D6 D0 57
 57 63 7E A1 05 11 4F 02 C7 E6 A5 24 F8 BA B9 11
 4E 47 FE 0B 35 27 F7 67 8A 6F 15 15 C8 8C 0C 38
 C2 8C AF DA 98 8C 0D 67 30 C4 68 D8 61 F2 8B DC
 0D BC 6F 7F D8 53 11 EC 61 7B 0D 0B 44 D8 6D 3A
 64 27 27 C1 9D FE E4 AA 58 00 81 B7 F3 6E E3 CE
 BA E9 2F 8E B1 45 04 11 B4 9F 70 39 AB F6 7C DD
 9E 52 C9 3B 8B 0B E1 AF 4F BF EE 96 87 1D DC C8
 F6 BD 8A 57 C2 64 DF 77 97 52 51 33 92 CF FC C5
 5C E2 EC 5A 3C FF 0D F1 A5 04 F2 9D B3 43 CA B6
 BF 7C 3D 55 00 41 9B 77 0D ED 1B 6A 3A EE EA 13
 99 FA 88 7D 8C 92 A4 EA 96 91 97 D4 07 DD 14 57
 AD 1B AF 93 23 D5 D2 DF A7 FE DF 95 3E E0 A7 12
 52 D4 5E 6B 41 F4 D6 90 91 8B A4 2B 0B 75 EA 44
 75 95 EC 7E 30 2C DB 2F 4D D6 5C 9E 40 7D 31 48
 72 6E 03 AB F5 49 12 67 F3 D9 6C C8 23 AB 48 17
 03 80 8E 83 35 75 D5 9A 97 8F 9F 51 DF D0 EF AF
 E1 CB 01 30 8C B7 40 B0 CB 33 F8 34 87 54 D1 39
 80 FF A3 44 61 41 F0 0C B3 3E 19 5E 29 A3 1C 04
 E1 8D 7D A6 30 5E FC 21 48 C9 22 AE 5F 1D 8D 8E
 7F 98 5E 9F E6 11 7A F3 FE B6 50 C4 73 B2 50 CF
 52 6D 47 31 C7 DF 90 E4 96 57 0F 4D 14 18 F8 48
 63 9D 54 AE C3 CF E0 A7 47 2F A0 79 6F B5 99 88
 CA 97 19 34 1C F6 02 27 B8 86 81 41 31 C7 7D AC
 70 3F 0F 72 72 E8 7C 7D 6A 4A CC E3 C5 D4 9B DE
 3A C9 39 71 87 FD 7C 12 31 F8 6C A4 A1 E5 1D 41
 E2 9F 82 23 67 98 87 0D 9D 11 38 39 CA D1 4E F5
 F7 94 D0 29 47 45 84 97 28 CF 88 63 DB D0 F6 CC
 2D 16 33 57 BA A7 2D A0 23 11 15 7B 36 A4 C7 19
 12 F1 8B F9 FE D8 D1 8D CF 44 00 84 2E EB 7A 45
 15 AF FB FA 7E 9B FE 1C E3 65 70 BB 68 09 E8 A7
 8A D0 B2 33 10 F0 80 36 62 46 CD FB 90 B5 2F 41
 7A 22 2A BE E5 E2 FE 6C F2 F8 CF EA BE D3 8E B9
 3A 8C 6B B8 E6 DA FB 4D 60 F4 77 5C BF 50 76 C1
 D2 A6 C1 B7 E6 A1 07 0E CD 67 DA 9C 04 81 37 55
 3D B3 C8 C6 DA AD 6E 01 0F 2D 4A 47 C2 C4 C8 DD
 DB 3D 7E 20 C2 4D 82 9A 00 66 21 A9 7B B0 C3 F7
 7E 0C CA 9C 02 1F B6 B7 78 C9 C2 7B 21 C7 CC 1F
 BA 41 3B 96 14 0B AB 54 8E 6A 74 02 86 25 DB DC
 4F B6 39 B8 A5 4D 56 73 2C 31 FB 27 6C ED 8D CD
 E6 5A 6D 0D AD BE 27 81 3F 0F 0D BA 50 EB F2 73
 D9 D0 8F 08 28 F6 1B 3A 47 75 DD 54 B6 61 18 68
 53 F2 E7 8B 46 AF 6C 76 AD ED CE 12 26 69 96 1F
 1D 0F A2 63 58 2B 15 66 AF 04 A1 CC 43 87 E5 C5
 77 FE 2A E7 AE D5 1A 28 3E D4 C2 FE E5 BC 3E 8E
 B8 B6 36 84 56 51 39 94 14 16 B5 12 36 AD 89 18
 55 86 5B 3B 7F 3B 02 B3 3B 5E 5F 6D 94 24 3D C5
 84 06 64 BE 4C 73 0B 07 47 D1 10 75 B5 4D 15 6B
 5B 59 8A F0 10 5B 18 D0 EE C5 6E 73 D8 6C 72 52
 2E 2B C5 F5 AF 8E F9 B5 34 A5 BE 2D EB 85 2D 80
 74 4C E5 9D F5 CD EC 43 3D 1E 39 E1 7B B2 16 CD
 1A FE 38 83 C2 FE 99 F8 7A 12 A0 68 97 EC A9 83
 60 E4 1C 82 A9 BF 13 28 0B 9D BE 3B EF 93 92 F2
 2F 76 57 C8 D2 22 E9 32 01 2B 1E 35 16 15 BC D9
 35 59 36 23 B6 21 88 51 43 39 60 63 39 1E B2 0E
 41 E3 CF 20 BC 1A 8E 6B CA A9 39 25 A0 DA 71 23
 9E 37 4B 36 8F 69 38 1D 3B AA E2 AA AE D4 B3 A7
 D6 00 21 B5 A6 C1 4D 71 22 6C F1 6A 9C CA 81 14
 02 99 B3 A0 F1 E2 B9 76 64 6A FC A7 D5 2E 67 69
 60 CC 05 86 8E 9E 66 EF 8B 0A 6D 23 D1 25 81 3C
 DE 8D B7 6C 1B 85 F6 39 10 CD B7 92 7F 62 1D C0
 3C 1D 64 69 A3 E8 08 7A D8 30 AB AF 10 07 20 8D
 EB 71 F5 FD 59 7B 97 FD 84 26 66 27 57 64 A7 E8
 39 48 F0 F1 A2 1E 6C 7B 16 C8 AD 73 FC 97 BF BA
 BA 19 D7 2B 9F 9D 21 8E AC BE 7A 45 4E C7 73 6F
 C9 20 AD 81 EF 41 47 52 32 62 A8 45 78 92 BA 7B
 39 A6 1E C6 CC 08 63 DE F3 C2 FF 63 BD 55 51 EE
 C3 4B 33 9A 88 F4 8F 9B BD 99 8E 68 CE 42 B5 A8
 C3 C0 6C 93 69 DF B8 A9 0A 2C 3C 30 47 A4 80 8A
 09 F4 6F 0E 4D 41 A4 24 93 13 F2 5E E5 FE 39 EA
 A7 CC 4D CF 4C C8 5E 59 E6 D8 EC 39 DE C5 32 34
 C7 8B 46 BE B0 E2 5F 7D DD 79 C6 75 06 FB 81 4B
 CE 1B 21 27 1A C0 77 B8 05 42 1D BB 24 4C F4 87
 55 DD 87 FF EF 30 D7 45 8B C3 73 3F 92 25 40 0D
 D1 D1 DD 1D 25 B1 AA 7B 31 C7 7E F8 7F 89 36 48
 AB ED 6F B6 B0 3E 72 16 C4 31 13 C3 77 B3 9A F1
 08 53 5C 47 84 7D F7 6E AD 08 63 FF E9 3B BD 0B
 DA 3D 68 85 FB 68 CC C5 C6 5C 94 E2 50 D1 52 8A
 E9 32 4B B1 5E 89 B6 55 32 15 D0 AE D2 FC 11 EE
 14 9F EA EE 47 4C 97 D5 08 A1 FF 47 43 2E CE 55
 C7 84 4E AB 2F 0E C0 FA 16 EE 34 2D 39 AC FF 7C
 ED CD C8 7A D0 F0 36 0D 76 52 A2 AC CD 02 11 EF
 15 94 1B 3A 51 20 D4 57 0F 34 C4 52 5B 5D 72 66
 CE BC 75 19 35 F5 F9 52 11 DA 76 D2 AA 4B DD ED
 9F C5 6F 90 B2 26 E9 D8 30 5F AF 85 23 43 38 B6
 2A 93 BD 25 B7 7B 59 10 91 B2 9F 98 C3 92 90 98
 83 27 E8 24 5C D5 32 B5 0A E5 25 D4 21 E0 8A D2
 59 AF 47 06 F1 E8 29 93 D9 5B BB 60 A0 09 88 BC
 50 B8 05 3D AF D7 59 BE A3 63 2F A9 F2 6B 94 42
 21 45 9B 5B 5F CA 8D 98 3D 96 07 F8 96 9C 34 2B
 0C A3 4B 24 EC C7 DC 7F 15 1E 31 84 2F 6D 1A C9
 83 00 6F 0D 78 23 AB 42 CC C5 A7 78 F5 5E 04 8E
 D1 17 24 12 00 C3 F3 E8 78 CB 07 91 93 47 8E B8
 B0 29 40 99 9E 9E F0 CD DF D2 F7 EC B8 1B 58 B7
 46 B2 EF 93 4D B0 87 E6 A8 38 F6 36 22 02 8F A1
 E0 4D 2E 4E 8A FC 6C 04 F4 07 58 BE 1D D2 72 3D
 A3 A6 86 6B 09 90 9F 13 D2 E9 B0 0B DB 29 B8 A9
 06 A6 76 56 53 F9 36 14 29 1C 45 24 39 67 80 A4
 F0 FD 16 9F DA C5 48 6F 6A 7B 30 AF 07 A8 D0 23
 7C 31 B2 CE D0 A2 56 7D BB 6C DB 44 21 84 FF DC
 29 B5 8D 21 88 59 62 F0 68 E7 9B A4 30 9E 34 45
 33 5E 31 32 67 35 F8 A6 BE 74 A8 B4 4E ED E5 C4
 09 83 03 29 2F 87 0B 4D BB AE E5 1F 3A A3 AD F9
 D4 A5 2D 96 D2 70 90 2A C3 EB 01 3F F3 C8 8B 99
 31 2E 6F ED AF 71 F3 5F E7 31 4D 54 DC 46 BE 79
 F9 F4 6B AB 24 10 22 46 7F 89 AA 57 91 B4 FE C0
 56 B5 53 52 83 1B 12 16 06 C1 9C C0 DE 18 33 46
 32 A5 C7 4D DE 32 C7 F0 CD 49 26 26 46 80 C2 87
 30 97 70 E9 4C 78 2A 5A 57 23 00 D8 95 0C C8 41
 79 6E 98 60 EF FA B6 84 59 41 69 5D 07 65 AE 03
 F9 D2 3E 68 11 D2 2D 33 29 3F F7 C1 29 E3 25 01
 5F 3E 09 5A 4A 05 88 D8 FB 7A EB 50 36 4D AA D0
 2F 59 1B E6 34 E3 26 26 AF 6F CE D7 8C CC CA C8
 DC 81 BF DD C9 25 EE 4D 0C 7B AF FA 37 95 BB 1D
 1B B0 36 1B AD 13 0E 96 37 68 19 E7 AE 48 4A 31
 D0 97 0E 19 4A 62 32 DD F3 42 47 34 D1 2C C9 96
 01 F2 1F 07 D3 56 F9 CF FA 71 C5 DC E6 D5 AA B7
 2D 93 60 91 7F 6C A6 05 0B 00 EB 2B 52 30 82 CB
 8B 4D 9F 89 3D AD B6 40 B5 84 FE 07 ED E5 3D 9A
 8C 60 5E C3 5A 01 09 6C 81 EA 9C F4 6E AA 6C DB
 B0 22 00 2E 51 49 F4 CB 18 66 A1 9F FD 49 1B 05
 E6 7C F9 D1 C9 55 1B E7 F9 11 18 64 AF D1 5E 57
 68 DE 06 60 6F 41 84 B2 3A FB C6 BA CD 73 16 E4
 21 B6 7B 9B DA 06 CA 54 6F 1E 1F 1B 24 86 32 87
 6B 71 D9 4D 16 EE DE 96 39 DD 83 A9 AE 8E 27 D2
 53 C7 40 B0 C0 CE FD B4 94 7A 5A B7 B9 E7 52 C2
 F8 B1 6B AE 9B AA FC 6C 5B EA 47 63 93 FE D4 6B
 D3 5A 6F 04 08 A1 E3 2D 80 EB 86 8A 34 1B 02 71
 D6 EF 3D 8B 93 F7 20 80 D9 1D 4E 88 35 3E 5E 03
 DD 53 BC 8C 83 A1 2C C0 E5 9C 2B C2 A3 8B 7F A1
 E2 21 2A 9A C6 31 55 AC E0 8D EF 0B 90 83 A3 D6
 1C BC 8E 53 72 75 83 16 AD 78 51 D2 15 9A AE 94
 1F 79 06 6C A1 67 A5 7E 1F 58 CC 97 5A 43 3C B3
 8B DB F3 1D 88 14 39 11 DE 9B 0B 18 B7 D8 A0 A6
 94 CD AD 8B 0B 3C F1 FE 40 74 61 6A 57 28 D4 65
 4B 9A 38 9E 8F 48 FA 6F A6 59 D2 A6 E9 9B 03 AE
 BE D8 6C 90 7C 86 7B B0 2F 42 F4 01 FA 7A 5F A3
 7F 5C 37 78 44 B7 A4 A0 FA 4A 85 5A E5 A2 CA 1E
 2B 4C 25 F5 6B 18 84 AE 37 72 65 32 84 9A A7 03
 BD EE D6 2A 5B 2A EE F1 93 B9 8E C9 21 CB BB A7
 20 8E 98 3B 60 F1 BE 60 3C 38 49 D0 5F B5 96 4B
 7A 97 2B 9A DA 90 E9 1E F1 DA 0F 54 06 65 8B 76
 EF 3D 7B 12 EA BB B1 46 BC 2D 04 48 E0 3D 8D FE
 81 2B D0 DA B7 B8 5E 5D 63 14 41 B2 27 10 42 86
 64 68 50 79 1A C6 80 4F 27 88 4C 92 C9 9B 86 1D
 C3 93 67 F2 D0 CA 6C DE 4D 7A 7A E0 EF D2 96 1B
 6E 57 A5 AD 4B 55 D0 38 8A D1 F7 FE 24 DB 2E D4
 3C D3 98 C9 E3 58 05 3C 06 F4 A9 19 6E C5 E7 13
 F2 7D 23 F3 A1 20 99 F0 AF 7F 35 45 38 1D 11 4E
 99 E0 E6 50 80 83 A9 59 67 D3 68 72 64 65 F9 4D
 BD 62 FD 91 E1 9C 89 4E 37 06 39 C7 A9 3A 7D FE
 B3 16 35 A1 32 37 61 8E E8 C8 DF B2 52 04 41 CB
 A6 2F 8A 63 F6 CB 18 7A 00 D7 22 D9 91 0C 4A 86
 33 87 92 96 91 13 4B 05 01 67 4C 7C E7 20 7C 0F
 9F 97 E5 33 42 AB A9 5A D7 7B E0 53 60 B6 F9 6A
 D9 CB 71 85 CE 88 00 4B 1A 0A F7 68 76 D3 CB 1F
 6F BA BC DC F9 98 F2 0E 7E 9A 00 02 90 05 DE C3
 7D C0 46 56 FE 4E 8D 08 DE 41 D1 D4 54 47 3C A1
 D1 25 6A 4F 63 9D 96 70 05 E3 0B 53 27 AC 8D E4
 98 B5 A0 9F 2A CA 15 DE E7 51 48 F0 84 C1 C3 F6
 E8 0D 10 0C FD AA BF 3B 70 3A 06 91 C4 D0 46 E6
 C6 41 D3 AF 63 75 63 8B 25 C8 17 DB 51 D5 76 5F
 39 98 CF BF 72 0E D8 78 89 31 5D 0F AB 0A 57 02
 FD 74 D3 A8 4B 46 8C 00 24 D3 8A 21 DC 08 00 77
 BC 2F 7D C8 EC C7 47 48 CF 63 AF 8B 13 08 F2 B1
 63 9F E8 0D 2E 8A 10 19 80 31 F2 A7 4F 9E 1A 1A
 51 3B E1 14 C5 02 9A 2B 6B 24 49 64 D0 EA 9D E0
 DB 2E D9 DF 87 EA 7A E2 93 95 04 A3 FD 3D F9 01
 5B 36 83 41 98 E1 9B E5 79 D3 30 0F 4F B7 C8 99
 47 25 27 42 65 38 22 13 DF B1 1D C2 D7 D7 27 52
 AA 12 BB CC B9 7D 57 92 EB 42 41 7A 55 88 9F 71
 09 A3 D1 98 C7 AB 16 82 F3 BA BF C6 FB FA 04 82
 BD 11 72 D1 58 22 6B E9 C5 C3 01 59 D4 B1 6B B9
 80 77 11 CF CC B8 73 F8 46 B3 8E 2E CA 10 52 1C
 2A AC 1C EE 39 6F 00 D3 9A 38 32 19 E5 4A 5B 9A
 4D 94 D4 2D C5 35 07 9B 48 78 50 CF 28 3C E6 B6
 23 E7 58 E6 E8 B3 3A 88 9D 70 57 31 A8 B2 E0 B2
 39 79 C2 04 46 EB CE 4C 97 20 71 70 90 47 80 D6
 74 FD 11 6A 20 28 39 F6 B1 A4 B8 0B 26 7C 86 E5
 E6 83 87 14 18 0D 56 72 97 69 58 17 2E 2D E1 D1
 E9 A8 BA 90 EC 9F 0C E8 B7 5A C5 F1 E2 2E 3C 36
 18 61 F9 09 B0 1C F6 6D 22 B0 95 6D 6F 57 B8 79
 A0 D5 75 24 A3 C2 FD 03 32 0F CD 35 68 18 81 E3
 B9 DF 66 23 7E 6B CA 7A 3A 90 7E 83 45 23 B8 3F
 E5 F8 CE 9D 46 8D 2F DE C1 2C 6F B0 16 FB 55 56
 BA 97 97 5E 59 D6 E5 1B 37 73 A5 B5 CA E1 64 B7
 73 0A 5B 04 00 19 3D 52 19 7F 45 74 13 94 49 EF
 72 F0 6E 82 42 7B 4F DE 53 F2 18 1A DD AE 18 BA
 AB 9C 15 CA D7 EC F0 6F A5 0C B7 01 52 EE C5 3D
 76 31 14 BE DC EF 02 3D A8 FD 4A 63 3D 0F 38 6D
 A9 9D A3 5B 44 14 E6 B8 EC 5E BA 55 35 9B 62 E8
 AF DF CF 21 F7 73 9E 06 A1 A8 ED EF 93 08 E3 22
 C2 54 43 B8 CB F1 2F A4 82 27 9B 8E C1 75 2F 4A
 5D 01 17 6C 14 EF DA 28 EF 37 4A 97 E1 DA DD 02
 C2 49 B2 39 30 FF BF D8 21 0B E1 27 5D 01 47 66
 62 28 73 DD 1A 97 F3 EA 99 AD D6 F5 9D C4 77 C3
 FE 06 F9 50 27 7C 7B 14 31 E4 EC AF 7C 64 57 81
 23 9A 4E 50 C8 A3 B7 92 97 9A 8F D1 59 33 30 44
 E3 31 C8 E3 09 AE 26 D2 99 06 F7 56 C2 54 45 73
 C1 54 48 9A 45 C8 C7 DB EE B1 49 5D 0F 97 EA 2B
 C6 1B 55 E6 89 64 4A 3A B3 D5 03 C4 EF D4 EF C8
 28 69 93 B1 3C F8 F7 58 DB BB 43 46 56 42 0B C9
 DE 3A FA 14 7F EC 2C 14 9F 14 E1 62 81 68 09 0C
 92 F6 CD 77 5D 9E 73 66 49 43 83 87 46 46 3C 92
 2E C7 54 B8 C3 19 F1 96 91 56 86 45 29 FF AD A2
 04 09 41 07 F0 15 0D 6E E0 9E 20 5C C9 1D 3E D0
 63 68 A7 45 80 FD B1 FB AB 40 60 89 EC D9 21 AD
 01 69 F6 4C 92 DA 46 7F 33 54 67 E2 B4 4E DB BB
 FB 5C 0A F6 38 BA F6 E9 61 42 4C 12 C6 00 25 50
 20 8E DE C5 C4 7C D4 B0 4D 99 E2 24 25 3F DB 2A
 87 B1 16 27 FF 9D C2 0A 3B 7F F2 F2 35 74 BE 12
 93 58 B8 65 AF 74 31 E1 EC 5C 29 22 2A AF 72 11
 EF CE 31 98 89 45 87 9C 48 80 7C 85 25 68 7E 7D
 20 AE 88 BE D3 19 93 BC B9 D1 E1 A7 99 B2 3D B4
 86 59 9D 4C A9 F4 EB AC 15 CD 06 AF A1 70 A4 D8
 18 7D AC 8D 36 F0 B1 20 DB 33 41 99 6B 59 35 A9
 B3 3E D7 9E 15 5B CA 71 D4 D1 FF 39 AA ED 1D DB
 29 21 EE 7D 80 E2 6A CC 59 C7 39 F1 7F 47 96 BE
 A0 6B 01 1C 05 74 A0 25 2A C2 33 91 D7 17 36 95
 94 78 9A AC D9 93 49 2C F5 7D 05 2E 48 95 B5 F5
 52 E8 10 96 04 CF 59 B7 23 28 0C A0 0B 89 1D B9
 64 BC 3F CE 59 1A AC 3B 7B 78 FF 43 15 BC C7 7A
 95 33 94 F8 9E AC AC FE 6E E0 26 E2 B6 70 52 C4
 68 59 76 7E 5C FC 8F 62 40 07 BC 4B CE 3C 1C F8
 60 6F B0 9F 7C 43 ED 1F 7E EE 99 90 A3 86 A9 F6
 F7 B1 45 4B AD F1 DF 27 50 63 E3 C6 E1 8F 44 24
 51 FE 09 AD F9 13 1E BE 33 FA 96 31 21 4E 5A D2
 3A CD C5 EA EB 2D DA 8E 89 64 02 AC 40 A6 4F 9F
 34 C6 36 37 C9 74 C4 3E D3 0C 2C B3 F7 98 E9 93
 CA FA 1C A5 13 F8 94 EF 59 C3 7F C6 2E 4E 50 92
 DC 60 8B 40 CC 33 AE 2E 5C 4A 23 51 83 91 4B 0B
 33 3E 4F BC A8 DD 89 1B 2A 25 57 EC B5 18 DC 52
 5D ED 69 BB C6 EA F5 05 DA CE DB 97 CD A2 37 8D
 0F 75 77 FC BA 95 0D DB 49 02 53 CB E6 5B C8 E4
 1B 64 FC 38 7E A4 5A 35 30 E4 51 CA B2 71 76 4E
 5C CF 2E 46 AA 84 EF 04 87 D2 8D 8C 7D A0 EC 86
 EF 31 DA 9D F6 A5 53 22 5E 41 90 12 D7 B4 15 5C
 97 F8 55 42 10 9D FF 93 B8 64 36 35 83 BB 3F 04
 E9 76 79 46 3D D2 BE B2 63 64 F5 C3 3C D2 48 37
 33 4A EC 4D FF D6 6B B2 40 04 EC 80 62 46 65 7B
 86 8C DE EC 84 8E 16 18 11 85 8E 3D E3 67 F9 70
 65 3C 63 BF C6 54 40 84 E7 F6 F1 74 D1 D3 DB 65
 90 D5 91 47 59 34 C6 4E 0F 16 CB 8B D8 26 FB 17
 15 B2 7D 73 BD DB 3D 7B 22 B1 C4 FB 45 76 4E 9D
 46 8E A9 1E 56 92 A7 0B 3B 5A AD 97 BE A2 DD 9F
 74 F9 65 92 99 33 BA FC 9E 82 85 ED 49 17 F8 63
 8C 11 D1 AB 3F 1D 4F 6A 15 7A 61 96 B1 6B DF E7
 C0 75 35 07 50 64 B2 6A DA D6 71 5F C4 7B 30 6F
 DF 16 44 EF C2 2E 99 63 18 76 07 36 39 0F 90 13
 A2 3A AF 20 21 D6 04 4E 5C 2D 94 E2 07 16 EA 8A
 2B D1 B8 C4 A4 3C 52 F0 EE C3 A1 F8 4F 84 D0 D8
 7D 9A 32 1E 42 C6 3B 99 A8 8D F3 8A 18 DB DB 05
 65 CD 1C E1 0B 46 F4 22 17 C2 20 23 9A 10 5F 16
 69 F4 5C 9E B0 CC 17 46 D4 ED 59 DE BA 7C 89 4E
 A9 45 72 62 F6 AB D8 1B 74 35 F0 76 94 F8 48 AF
 C4 C4 FA 39 CD 17 06 8B 01 D2 85 CF 2F 44 31 3F
 14 8C 67 72 80 5C 7F D6 C1 D5 E6 6A 78 2D 3F 83
 A9 DE B2 D8 FB 6E C1 C6 74 10 BE A0 B3 9C 23 F2
 95 68 D1 5B B9 EC E9 C7 63 D6 B1 38 B3 5D 7C 5D
 17 3C 06 C7 43 24 EA 70 8C 4E BF EA AE 99 F8 74
 93 75 D6 23 26 3E 85 8C 03 80 03 0C F1 A7 22 B6
 DA FC 3B A3 32 25 E6 EB E6 8D 50 08 84 C6 2E 7A
 6F C0 CF F7 ED AB 72 6C 53 F2 06 80 23 26 B7 50
 46 EA E1 00 F2 E2 40 AC 15 79 5A 4E E5 45 EF 0E
 56 58 68 09 3C A2 5B E6 2E 74 0E BE 53 9E E2 00
 F5 16 8B 7A C4 15 73 41 DE F1 AB D7 BE 5D E1 51
 72 7D 5D E1 49 F6 8F C3 7F 53 19 83 10 2D 12 1D
 5E C5 1F F7 BB 9C EC 07 01 63 5B 38 9A 7D 4B D8
 94 74 D8 CE FD 04 B9 5F 3C 09 4E 92 48 97 01 EB
 3B DA B1 65 DD 3C 88 28 79 8E 22 AA 58 2F 1A 8C
 15 1A 45 A5 55 AB 2F 18 E2 00 69 5E 3B C9 70 1F
 BC 63 FC 30 5F 98 1E EF E9 5E 44 47 47 C4 0D C6
 D6 F9 4A C0 C2 C6 AB 9A 35 9D 13 3F BF A5 E5 A6
 E2 BA 43 17 89 C6 8E 93 57 75 78 B3 8C C4 B4 E1
 A7 42 00 0F 4B 61 F7 E3 A6 7E F4 55 B7 EB 47 AB
 5D 96 74 86 F2 9E DD CF 7B B7 FF 9C 3C 28 C1 B1
 B4 3C 85 C8 8B 26 32 22 6B 06 73 35 56 9F D8 31
 33 9D 79 87 D0 BB 8E DE 39 10 BA 2B 77 03 6D 07
 B8 81 9A EE CB D5 6F 6C 9C A4 96 30 5D 65 73 48
 80 E8 FE 01 C1 F9 5D 66 21 C6 DF 18 58 1A D9 72
 5F 90 61 47 36 E0 14 39 8D 98 E9 74 89 78 21 1B
 03 24 36 34 25 F5 D4 47 1A E9 E1 7A CE 25 5D F3
 45 57 3B B1 20 2C 13 02 92 79 47 74 24 EB 31 1D
 7F 11 D0 68 AB 7D 3B 4E BC 93 9D 8C 6C D4 5D A2
 41 5B 61 83 2B E4 4C 8E 99 95 5D F5 11 06 98 FB
 BF DE AC 49 91 00 F0 21 84 42 2B 3A A5 D4 2A 0F
 32 6F 68 24 FD CA B4 97 6A 88 F7 27 5B BE 70 18
 A6 C4 60 D4 42 35 2A 58 5A CB D3 76 22 4F A9 19
 A0 96 1E 8A 68 45 42 4E 71 FC 10 1C 2A 46 DC 1B
 C4 4A 58 A3 B8 F4 FC A7 43 8D 8E 8D AA 4F 2E 2B
 98 93 62 99 A5 DE 5E 6D 2F 1A 71 01 15 FE EC B4
 B9 1A EB 17 9A 6C 72 8B 26 0F 19 63 63 58 9B AD
 63 F9 80 38 C4 6A 16 DB 00 7B 4D 5E 0B 52 B0 C9
 F3 30 BC 1B C5 3D C1 A1 77 87 6B 8F B0 DA FA 3E
 68 CB FB AD 9A BF 54 FD CB 10 95 D7 0D B1 F6 86
 51 9C 6C B5 2A 0C 95 E2 1D 1C 74 13 D5 F3 B9 43
 F9 FD 39 6D 30 77 F2 43 41 09 83 6D 23 2D FE EA
 42 11 C5 17 62 A1 1E D0 0C A2 0C 14 98 E7 B3 25
 6F AF 8D 48 43 39 83 A2 AA 13 5A D1 6F 31 59 3D
 F7 1B DA 58 C6 21 E2 79 11 D2 D1 0D F3 9D 28 6F
 DB CD C6 94 CF 10 3F FC 13 D3 D7 11 1F 94 83 4F
 6F 15 77 04 F0 07 10 25 DE DC D2 EA 8E 6C CE E0
 4A A3 E5 E7 F4 F3 C1 CE FE 71 01 9B E1 47 12 C4
 BF 6B ED 2E 6D B5 AB FF 6D 1F FF D6 2F A8 B9 71
 5A 6F 7D 87 C7 48 A3 DD AE DC 97 E8 94 AD 87 B8
 25 CE F8 73 07 E8 BD 7D 4C EC 1B 06 05 72 C4 DB
 02 E2 BF 77 6F DF EE E5 EC 30 5F 14 44 6A 16 74
 7F D6 77 ED 3C D3 74 8A C9 6A 0D AB F9 29 80 92
 D7 9F 06 8B E9 81 8C 31 14 86 77 85 0A 64 36 AF
 0F DD 7A E0 EB 4F 2B 89 58 74 E9 99 5F 50 96 9D
 F7 B7 3F 5E 5A 26 B5 60 B1 10 A5 8A 8D 79 4F 96
 6C EA BA 51 E9 63 B1 E6 94 06 F0 A9 56 50 DB 1B
 79 5B 61 66 AA 8D 6B 39 EE CB CB F1 F2 FE 57 50
 3C C7 D2 AD 5A F7 CF D2 31 A7 F8 C5 69 81 DE CC
 AE 03 6C 45 4A 9D CC 08 E0 CF 6E B4 4F 0B C0 F7
 67 6F F5 F3 78 61 3A C7 37 A9 4F B5 44 EA 00 71
 8E D1 F2 1D 76 F4 15 7C 27 A5 A2 CE AC 90 D2 8C
 19 0D ED D3 46 AD 98 0C 53 5F 0B 02 EA 10 E9 64
 C2 57 B0 AD 13 59 3E AE 2D A8 62 2C C2 D4 2D 47
 F6 41 7B 96 86 AF 9A 53 4D 79 0A C5 5A E8 09 56
 9E 2A C8 54 FD 3D 96 4D 56 F4 E9 04 BC 96 3B C3
 68 00 11 3F F3 A6 A9 4E 88 91 3C 13 8A DC 3D 29
 E6 67 28 05 17 66 2B D1 16 76 7B 73 4E 59 67 A4
 37 BE 47 2B DD D6 B5 A8 74 3C 41 14 2D 56 C4 DA
 F9 E0 D3 08 F9 8B C4 E5 98 E9 A0 EE 0E 4D 8C 3B
 BE 5A 30 AD 9A 9B 38 34 5C F5 40 1C 08 ED 3E D9
 BB 21 F2 1D 89 3A 97 9F 0F 8F A5 31 55 40 85 F1
 9A E5 C2 05 47 A6 BE 5A DB D7 6A 13 8F 36 B5 C5
 0C 1F 41 CD 55 4C 0D C9 EB D2 27 73 80 7B 92 4B
 28 76 74 E8 53 9B 4B 1E AF 6C 62 42 27 E2 40 F1
 3E CA FB 4F 99 8E 4D 2E 60 B4 8C 30 19 D2 8C 3D
 3F 90 89 84 F5 2B 80 43 2B 34 FB 46 D8 F2 8C E1
 DA AF 2C B8 C4 FB E2 EA
* End 1991365588 1506087671