* LTspice Encrypted File
* 
* This encrypted file has been supplied by a 3rd
* party vendor that does not wish to publicize
* the technology used to implement this library.
* 
* Permission is granted to use this file for
* simulations but not to reverse engineer its
* contents.
* 
* Begin:
 83 C1 71 F6 D9 C0 1D A9 CC CB E4 39 4C 11 02 4E
 AA 75 64 54 B2 15 E8 1E B6 C7 20 22 D1 F7 8C 7E
 1F 8D 68 CC ED 25 6C 53 EB 6B 72 E6 53 71 DF 3D
 8D 56 D4 EE A3 17 95 9A 88 88 E6 0E E0 AE 13 AB
 2C EC 0D AF A1 F3 A4 D8 90 D9 05 5A C2 41 A3 BF
 2C 84 8F 47 84 90 3F D2 B7 8F 08 28 5F FA E1 2B
 D9 41 40 C5 D2 A8 02 E1 4F 47 EF 5E 4C 7F 80 AF
 91 A1 53 16 E9 D7 D6 58 F2 1D 14 8F 60 E6 F2 34
 12 35 CF 40 55 50 88 A2 C5 8E EB 4E DD 00 FA 88
 F3 93 66 0C 62 0B E4 91 A2 E7 C4 60 05 BB 1E 11
 23 54 E9 D1 B9 DB 6A 8B D8 B0 7E 97 52 CF 6C 23
 36 9E ED 3A 2E 91 AE 8A 87 8C 7E 80 24 6E 6F BD
 02 B8 4D 7B 49 19 86 97 AE A4 38 58 EE 6A 8A 09
 C8 53 89 65 17 6C 5B 44 BE 82 F2 C6 7A EE 5E 73
 AF 5B D9 1B 39 99 FD B0 DA 3C 09 2D 1D AC A1 6E
 AE 0B 7B 79 0D D9 87 3B B5 13 4F 62 8F 7E 56 B0
 49 B0 91 D9 5F 2A 99 89 05 37 7A 51 7B EC CA D2
 63 ED 52 8C E8 5D CA E9 BE 72 A8 71 92 5B ED 6B
 39 25 6D C6 C3 5B 7C B2 8E 9E 34 66 EE 07 22 B5
 1C 23 AF 4C 26 40 F8 C4 76 01 BD 6F 0E F1 94 87
 A0 5C F3 0B 22 9D 0B 63 37 20 FA AD 82 10 5C 65
 C8 1C DD DB 0B EF 5C 72 42 10 B6 9E B8 24 9B 55
 65 65 8C 04 6E C4 4B 30 80 DE CA 09 DA E8 80 19
 65 98 30 51 92 80 19 C7 E1 EE 75 B5 4B 0B B1 56
 2F 4C AB 0B 62 2D 76 66 E3 57 7F 96 40 41 7B 95
 A9 A4 C0 B7 D5 9D 04 D0 DA 67 50 0B 2D 30 C3 48
 C1 55 AE F5 AA 9F F3 5C 60 D4 F2 88 80 93 8C 80
 F5 38 2B 2B 6A 62 44 5A F1 A2 14 06 B6 5E 3F 67
 37 E3 55 95 41 61 4B 48 CF 78 B8 D7 51 B1 8C BF
 58 23 F9 E3 24 BB 4E 25 7C C8 C6 BD EF 12 0A 18
 EF 43 6C DA 4C 77 21 6F EA 36 5C 80 74 71 42 C4
 36 49 D8 54 F3 2F 28 92 CE C8 20 BA 3E 63 DC 08
 7A 5A C2 70 F3 F3 16 BF 63 D5 CC 73 53 6E 00 91
 71 3E 8D 39 58 B3 86 C8 26 00 A0 9B AD 14 F5 9C
 12 2A 96 7B 7F 9D 42 BC F0 9C 61 A8 F5 2B FB 8A
 18 D1 59 D6 DE DD 92 20 87 3B 52 6D B1 AD BB 2E
 D3 37 D8 40 2A 12 B5 D2 C9 ED A8 C6 C6 0F 80 75
 FC BC CD BA 8C 19 F3 00 3A 1B 32 69 69 79 AC 96
 53 A6 7B A6 33 F7 D0 80 08 D2 B6 E2 4B BE FA D9
 DE 45 F2 52 C9 CB 9A 13 6E 81 94 E5 37 51 76 B8
 2B 4B EC 20 5D 18 74 E2 42 90 A3 EE B5 85 43 6D
 5E 52 64 85 48 6C A4 0C BF E4 C2 8D BF 02 EF 57
 A1 AF AF BA 59 92 23 C8 1D 7D 3D AC FD F4 FF AE
 E2 49 50 A0 E3 ED BA 3F 96 37 56 0B C1 69 0D EC
 68 A2 EB 54 70 E7 D0 7F DB 95 24 2B A6 2C 8A 3E
 E1 C5 55 46 E9 F2 D1 66 6D 9E 3C C7 6E 3C 68 9B
 C8 08 DF 8C EA 11 A9 A7 CA 8C 74 59 DC F2 8A AF
 E0 8A 58 CB D3 E3 10 38 49 A6 6B 4D 94 0F AF BE
 4B A6 A5 26 0A E9 E6 B2 8B 13 01 01 9C 2D 75 5C
 21 35 2C 7B A7 9D C6 DE 33 1A DA 42 F6 57 7A E9
 24 39 5C 36 D9 6E 30 A5 D3 0B 9E C5 4B BA 13 36
 A6 AF 52 DA AB 64 F4 4F 24 B0 D0 D3 45 E1 3A DF
 53 0F 03 5E 64 79 BE 0D 54 51 2E A4 F5 80 3D 6A
 0C 28 87 7E A0 20 57 BA EF 89 25 ED 2E 44 27 48
 62 B5 56 0F 42 36 E1 94 44 29 0D BA BD 97 02 EE
 AC 2B 8F 5B C9 64 E4 2C 2C 37 B2 A7 A5 7F 29 84
 3E E9 C3 56 9D 9F 13 74 DD 25 F8 9E CB 8F 0C 5E
 66 B0 1C EE 18 53 DB 21 DE 74 2F E4 82 93 4E 92
 F8 40 6B 9E 8D F4 E8 6A 76 4F 14 FB CC 2E B2 A8
 32 1E 25 57 14 F2 1A 45 E0 DA 25 85 29 3B E1 CF
 31 37 D5 16 8D 91 DF 0A D7 2A B1 AC F6 86 DA B6
 1B B5 40 E2 70 65 C4 2A 6C 0F BB 71 B4 5F 3F A4
 9F FD 94 85 67 37 EF 30 90 7D AC 59 6E 5B 66 DC
 5F 28 5F 82 45 B9 39 48 24 B4 30 6B 47 EC BE 58
 3A 7F F8 2D E4 AE 82 9D EC 32 75 DA 5E CB 00 84
 6A 1B FF 6E 24 D7 C1 D0 F9 BC 73 12 89 1A 0D 37
 06 38 CE 90 77 EC 6A 06 3D 50 29 2E 3C 8C 20 DC
 6B D9 69 21 AE 19 DE 25 F8 C0 CF C7 23 87 6A 5F
 89 DC 1B 5C 65 6E E5 CD 13 65 7D E5 30 65 EC E4
 A7 BD 29 D4 8C 2D E9 48 AE 1E A5 A6 F5 C6 64 0D
 72 7A 1A B9 6D B5 BA 41 0E F6 43 4E 14 2B FF DE
 4A 64 5C 71 23 61 C7 E3 D1 0B 46 EA 64 DA 72 52
 52 4F EF E4 A1 47 09 D4 51 9E F9 59 D6 BD 14 4D
 94 35 77 2C 9D 71 2D 65 AF B2 D8 94 94 D5 95 CD
 18 4D C4 A4 72 46 40 74 C1 90 CB BF 0A 19 94 5A
 4D 96 06 4B 4D 4E C9 A7 9A 65 29 BD 95 0E D8 CD
 FB D4 96 12 3D 2D B1 94 EB DC 9B 59 48 F8 17 93
 95 76 DE 2D D4 FF 88 31 13 E1 3F 2C C4 78 BD 66
 F2 AD 70 A7 F8 E1 3B AF 9B DD 31 86 FC 1D 57 B6
 1B 2E F6 D3 B1 83 80 BA BD 54 E1 F8 FA BF 56 55
 8D 81 80 A7 90 FA 1F 29 1E 70 FA 80 1B 47 11 DC
 7D 74 B2 50 64 02 4A 47 F9 F1 F0 E1 2A E0 DE 59
 7F 00 28 4B F4 AF 5A C3 1A 58 0D 53 39 D6 CE 29
 4D 60 A9 CD D0 1F 9B 6E 96 C3 F8 DB F6 B2 02 18
 6D E1 B9 42 1D 8E 89 17 DB 33 0A DD A2 99 4C 91
 F6 29 4D FB F5 92 3C 62 B1 BA 0A BE 7F CB 3C E0
 DE FB 97 B0 74 27 4A C8 29 76 BA C6 DE 53 DF F5
 11 60 9B F4 F4 83 5D 54 94 0D 38 18 EF C9 E5 C6
 6C DA 51 5B DF 07 A5 0E F1 B2 8F D9 D0 B0 A8 74
 7F 6A 6E 52 EB E5 ED 50 39 E7 21 5A AB 8C 87 F9
 FE 2C C2 4C FF 82 EF E6 82 D6 A1 66 4E 2E 90 59
 9D 0E 7A 3F 52 CD 0A E1 BF 12 FE 34 9A 5F D1 05
 54 85 81 C9 A5 F7 DF 1B 01 B5 62 71 D6 94 DD 5B
 B2 1D 96 AB 18 58 5F 98 F2 18 71 5E 10 50 73 0F
 F6 26 81 8B AF 22 3E BD FA 6A 9B 28 D4 45 FC 49
 FA E0 66 6C F5 E2 81 F9 86 C9 FB 40 DC E7 5B 3D
 17 14 A1 44 79 E0 DE ED 56 BD 75 69 36 33 47 90
 F0 E4 84 5B 7E 31 DC EA 7F A3 FA E4 61 76 2E 17
 D9 6E D7 52 30 14 56 CD F3 1B CA 57 FE 6C 37 F9
 0C 1D 3E 8A C2 D9 E6 5C F0 2A 01 D0 93 09 5B 51
 61 98 EA A7 FE 8C F9 97 21 7A 64 6E C3 89 B5 86
 3A E5 CA D7 5D 0A C8 F1 25 37 D1 F7 DB DC FA 3D
 65 E2 A0 74 DF 33 64 5C 0A C5 2D DB D2 6E 5F F9
 96 36 36 6A 5C B6 BE 55 D5 72 23 01 8E 3B 77 AE
 A3 38 E6 89 69 12 B2 8E C7 01 9B 75 4C BE 8B 01
 51 4B 89 87 D0 88 8F A5 21 79 03 E4 4E 49 BD 8B
 1F 61 BB 80 43 B5 40 34 0C 2D 30 3B 8B 2F E1 A8
 09 05 7B BD 76 CC 47 30 DB EE D2 8E D5 8B 25 B0
 58 0E A9 05 C2 BB CB 0F 7A 70 89 0A 7D 23 38 6F
 15 C0 27 37 54 20 16 4E FB ED D2 CC B4 D3 01 4C
 A8 86 0B A3 54 86 52 5F 0F 00 4C F7 AA 16 43 48
 04 6A EA CB 4D 99 3A C6 AB D4 AE C3 BC D3 82 4C
 B5 03 53 5A 3C 94 68 9C B9 EE 17 B1 6B 8B 8B 99
 FF 94 43 BD 18 8B 2C 17 6E D0 C7 29 13 3D F1 A2
 FF 6F 38 71 4A D0 5E EE 21 9B 89 7E B5 83 58 88
 87 7F 5F E7 B1 57 8D 5A FD 5D 0D 24 3C 94 BF 81
 A0 6D 2E 88 C3 58 0E 4D 67 DC E1 02 32 4F 29 8D
 11 BA 55 C7 A6 B4 2C AF C5 89 24 7E 1A 3D 0D 3C
 95 60 8C 6B BC 1E 48 8F 5F 14 48 2B 5F A3 B8 97
 B5 E8 0B 67 D8 C9 2F B2 FA 09 19 08 95 13 68 56
 5B F8 D0 45 EF 46 87 7E 74 4D 2B DA 47 A1 40 CB
 6E 17 56 80 7B 82 19 0C 9A 13 B7 C4 55 9D 56 78
 F9 DC 51 FB 21 D7 11 E4 5E 2D 8B DB B7 0F 54 27
 D8 14 26 38 4D 98 AF E4 E3 28 B2 36 46 17 76 AB
 D9 FF 3B FA AF 8D A8 D7 64 7D 6D 57 7C 02 B1 74
 73 A2 D5 E0 0F 4D 02 FD 63 06 97 EA D0 E9 11 E1
 9C 42 AD 24 E0 D4 69 8C 22 84 9F 15 7A 69 3C 16
 4F 49 66 B6 39 F9 36 AA BC 86 7B B7 F2 77 D8 31
 D6 81 0D EA 85 A6 15 5C 0F 5A A2 74 5E E1 8E F0
 43 E4 33 4A F1 80 0C 16 7B 0C 28 2B 28 91 2B F6
 D7 8C F2 F3 42 17 B0 04 AD 6C 59 CE 78 21 12 EC
 F7 DC 83 0F 9A 9D 89 E1 7A 89 33 18 E8 DE 87 C3
 82 5E C2 3D 1F 49 07 9A 4A 08 68 38 BD 09 DC E4
 1D 84 90 11 27 2B 70 F1 F6 0C 34 64 65 FC E3 BA
 5E 8B 67 71 B3 D2 4C 35 3F 73 42 08 79 F2 CA 91
 53 44 5D F7 7C 98 5E 97 A9 6A 73 17 F0 DE BC 20
 BA 7C 82 B6 98 E9 5E C0 F7 35 4E 57 0C 48 65 09
 DD 84 7B 81 1F E3 A3 4A 14 D0 48 63 3B 40 17 33
 5A 29 3A 27 A0 16 B0 87 E0 AD 33 3F 18 D5 DB F4
 3B 6E 36 D4 C7 FA 67 05 5A 9B 4F 7F 37 D9 97 81
 C2 B4 36 9D A7 80 8B 06 07 3C C2 25 72 A1 E1 FA
 B2 C1 DA 93 6F DC 98 4F 52 3B DF EE 32 4E E3 11
 6D 5E 9D 53 7B B6 29 78 17 CE 27 C3 9B 52 97 FE
 B6 FF 8B C9 9D 63 45 10 0A A4 92 4E AC 4D EC ED
 6D 68 54 90 5B C1 33 06 0E 66 A1 06 F7 EB C6 E0
 D9 D0 C2 43 66 D0 20 29 8F 19 5E F4 24 8C C7 F5
 93 DC E7 63 0A 1E 94 6D 3A 38 CB 8F E5 C0 23 3D
 2C E0 2D A6 D7 61 2A B5 6F A7 19 02 24 78 DE 64
 B4 3D 15 D7 D2 5F C9 BC 97 BF 78 21 55 39 EC 84
 53 2F AC 7C AC 3F FA 8B 37 18 D5 42 8B F3 41 2B
 23 A2 B8 D9 58 64 92 98 42 D5 0A A9 DC 48 21 29
 3E 31 55 CB B1 4A A4 EC 38 78 7D CD 33 A8 63 04
 7D 91 8C E0 AB 84 62 CC C2 61 AE 46 8F 9B A3 4B
 46 9B 7B D6 5A 64 57 39 D8 EB AE 6D 10 3B 5B 3B
 F1 73 AC 57 9C E6 07 4F 30 76 CF F7 2E E4 95 61
 E9 A1 DC 30 3D 84 27 3C 19 14 13 9E CC 9C CC 75
 21 7D B1 6A 25 BD 2E B2 B2 70 19 79 0E CB 83 3F
 FE 7C C4 F8 C5 C8 C5 80 F8 D0 15 06 B0 D2 E6 74
 0F C5 4B 17 AA 9C B3 59 D3 1A 31 9C C8 F6 3E 85
 47 22 34 94 8C F7 E3 D6 42 06 78 C3 57 A6 43 60
 C6 22 A6 0F 99 EC CF 16 7A F4 9A 2D 86 BD 6A E3
 56 12 BE 6F 38 6B 17 2F 0B 66 23 4D B7 B4 28 B0
 17 6E C0 6D AC 5F CF 13 AD 07 4F DD 52 34 99 F9
 BE 01 5C A0 93 FB CC 23 B2 2C 48 B9 CA 23 44 1D
 F2 7A E7 C6 AF 98 14 7C D7 25 60 D2 E2 2E EB 46
 9F 66 CC B1 62 EB 83 30 B3 D5 0C EC E0 D5 61 BF
 28 F8 03 53 1A C6 51 B0 A6 94 D2 E4 91 59 5B F4
 C0 9F 38 64 0B 14 A6 C6 75 37 A8 4A 93 35 3C 86
 2E CB D8 DF B0 53 FA A4 01 2A AF 29 A1 45 DE 03
 F0 02 2C EF C7 53 2C B7 74 F5 7B 25 BA FC 64 7D
 70 80 DD 55 04 85 68 19 0F 49 EB 6B 14 55 97 3A
 C4 68 86 66 D0 56 48 6D 1F 0C 90 BD BE BD B0 A5
 4E B9 41 F0 07 7A 49 62 09 85 A3 58 BB 0C 61 ED
 3C 31 10 F0 91 26 A1 05 5E 73 E6 74 73 48 DD 9D
 40 3B CE 67 AD CC 79 D8 DD CD 31 6C 6D 52 DF 71
 79 B5 6F F1 26 2F 86 C1 96 C2 2C 67 CF 1F 3B D6
 C3 9A 22 F8 EC A4 F4 31 C3 46 E3 6B AF 95 E4 D7
 A0 E0 49 63 F2 93 83 56 65 A2 D2 63 36 41 0A 4A
 C3 65 F7 09 AB 46 15 E9 BB 8B 1F BC C6 C5 BF 2E
 23 41 EB 67 B7 64 3F E7 30 28 86 CA 6A 1B 61 6B
 6F C3 E9 AE B8 52 2B 66 14 B2 2A 74 83 E5 04 21
 D5 DF A5 A7 35 14 B2 BA 0A 5C F7 CF DF CB 18 98
 85 91 4E A7 98 1C E8 BB 0F 1B 2F AA D9 AA 15 EB
 BE AB 01 5A 60 C6 1C 7D F7 70 A7 68 0C 04 A9 C2
 AA D7 14 47 9C BE 46 E4 28 0B 14 22 9D 46 8B 76
 BE 91 65 E4 56 7F 71 BE 8B A6 64 66 55 DC 2C 9E
 35 C9 FE 7B C4 3D E4 35 41 91 9E 0C F2 50 7A ED
 4A 55 16 C3 45 DC 68 FF 97 7D 4F 10 85 E9 74 9D
 51 DE 88 99 5A 08 8B C9 A0 F1 08 2B BB EA E7 20
 A9 F9 CF 77 A9 49 DC 7C A5 00 9D 18 08 63 C7 AE
 09 3A 1F 3B 00 18 AA 71 C9 71 F3 DC 53 EF 6E 4A
 A0 A1 80 6D A7 82 73 E9 60 DD A9 95 2F 41 BA 85
 2C 01 FE C7 DE E5 9C 9E DD 7D 71 95 4C 07 1C DC
 6C E3 6B 76 14 6B 68 45 71 62 86 D6 5E 1F 99 52
 43 6C E2 B8 07 89 00 E0 E3 A4 B6 B0 D6 8D BB 97
 CE 16 98 8B 50 3F A6 3F 38 20 98 71 3D 0A F7 7F
 DF 40 A7 AB 67 F5 76 F8 47 55 EC B0 6C CA F8 1A
 02 4C 72 84 3A 50 AC 72 AA 34 09 B0 C1 74 C1 16
 B9 F0 BE A5 F3 48 1D D6 2C 63 18 4E AF C5 35 45
 D2 73 AE BA CF 9C 6D B9 9F CE EF 29 53 4C 24 60
 E2 DE 66 03 20 28 6D FA 29 A3 FC 2A 19 54 26 E5
 E1 6E 75 B8 57 1B E1 64 88 05 D3 7A 36 31 D6 F1
 E1 2A FB E3 65 4D 9F 16 1E C8 DE CE 30 7A 88 A8
 8E 95 3D 2D 47 0E 3C E3 83 24 76 25 77 4B 7E A9
 73 81 34 19 99 7D F6 66 A0 7C 67 30 1E 02 3E F3
 63 F4 5C D3 47 6D 29 AB 92 59 FB 83 23 D9 D8 11
 6D 3F 8A 3B 9E 9C 92 4B 53 4B 7B 41 69 58 0E 30
 6C 0F CC 62 BC 11 5E 87 40 EC 19 AF 06 25 46 32
 54 C1 B5 AC C4 AD 32 08 17 9C 47 FA D4 A4 7D A2
 AA 9A 9E 28 82 AB EA 06 83 63 E0 04 0A 25 05 4F
 93 92 C6 ED 97 48 8A D3 E1 89 6E 9C 0B B0 F8 F5
 BC BC 53 8B 99 EA 9E 2B 34 04 FA CA 27 F6 E4 69
 13 10 63 F9 C1 49 ED A3 12 5D D1 09 76 1C 1A 46
 7F 64 64 FD 79 1F 59 B9 14 52 AB 67 D1 FF 28 77
 0C D5 C2 F4 34 F1 3D 39 18 FC D4 3A DE 30 51 FC
 08 1E 9A 34 89 BD BA 94 E4 16 B6 31 F8 C8 17 82
 E9 49 2C 68 CD A0 D0 2B FA 53 66 B2 32 51 50 23
 C5 85 CC 0F 99 76 C7 06 B5 80 A2 54 38 CA E2 41
 81 82 FF 30 E6 24 94 EB 6C 9B 1A 05 9D 77 C8 C7
 1E CD 87 23 2C 22 33 56 25 26 72 63 FF 4C 4B AC
 A6 3F DE EA AD 39 25 86 84 DA A0 6F BF 69 12 C7
 4B 2E 74 FE 1C 5F C3 D7 49 19 5B 9B 55 6E 84 FE
 D4 43 C6 99 6E 50 D6 2D 4D EA C0 9B A4 5D C6 0D
 FC 24 85 AF 88 0F 1C 5D 61 37 47 E0 B8 EF 80 89
 5E 70 74 05 FB E2 53 9B 1A F6 44 0B 14 AA AD 2F
 5A A7 C0 DB 42 36 A4 8D 26 97 09 3E 64 BC 0E D7
 27 5B 07 6A A7 92 C9 C5 BF 10 2A 69 49 36 D4 EF
 F3 84 A9 D9 C3 47 F8 1C 02 DB 81 5F 9F AB 06 4C
 A4 76 70 CB 52 DC 6F 0E D3 26 54 7A C4 8A E0 BF
 EB DC 41 B3 93 77 42 39 62 78 D0 3F D0 AC 85 4B
 2A D4 9D A6 F8 C4 DF 33 E1 DA 09 9B 68 7B FE 4C
 1E 33 AE 1A 8F 10 EC B8 25 BC 19 B0 A4 5F 93 31
 3A 2A 57 F8 25 1D D8 94 E7 A4 8C 60 A9 4A FB 2C
 AD 54 39 E9 28 A8 60 02 B1 97 F3 8D E5 C4 53 45
 F7 85 25 EC 7E AF B9 98 67 CD 23 C5 44 20 C2 BF
 86 F7 E2 58 B8 CA C7 B1 AA D6 5C E4 33 D4 44 A2
 48 AC 80 CA 50 BD 95 A9 CF 1F DC 1B 9F D0 3E 00
 D5 3D 13 CC B0 48 03 D3 26 6D 1B 82 17 AD 3A 22
 AC AF 79 4D 36 0B 21 4D A3 21 EA AA 7C 54 95 A3
 77 95 0F 63 D4 A4 0D 3E D7 C4 FB AD 9D FB ED 5D
 0F D1 E7 7E 3E 13 F7 08 25 09 48 F9 28 34 43 6D
 39 AD CC 31 97 28 6C 12 8B F3 11 44 94 B1 37 0B
 3F 94 43 97 93 0A 34 25 F5 AA 3A 79 6D E7 B4 7A
 58 32 CA 91 5F AC C4 41 F4 7A 31 A7 A3 5F D9 BF
 24 D1 B9 67 EB D2 97 2C 7C AA 42 F7 5C EC 06 5D
 D4 42 8A 36 73 F5 5A 70 AC 6A 66 B7 3B B1 12 D5
 E9 56 95 44 14 58 EE 91 C6 75 DD E4 D2 06 6D B2
 C0 0E A9 89 DB 25 F9 77 A9 66 98 8A 16 07 74 E6
 7A 0F F0 25 13 6D 0E BD D8 60 1E 55 17 1B BB E5
 50 59 A2 91 55 8F F4 8B 52 F9 B4 C2 A8 93 7C B4
 89 68 20 61 08 69 29 BB 75 89 CA CC 3D AD C2 EA
 61 CA FD 22 A2 11 EA D8 40 E6 8D C1 6B AE 5F D7
 FE 41 C2 8F 89 BE 92 C3 1C A4 00 C4 2C D1 CC 0B
 A6 8A 5A B0 D9 89 A9 C6 15 4F 88 7A 2E 5C 4A D1
 C9 10 61 CC 27 D0 8E D2 DE F0 77 DE 45 EE 1F 0A
 46 6C 68 A7 67 9F 72 FB B7 C3 57 A8 76 D4 11 89
 BD D2 61 44 0A F0 03 DB 84 94 DD B4 6B 04 7B E7
 3E DD F7 F4 09 1B 73 8A CC F7 26 FD 65 9F EE 1C
 CD 8E 86 DC 6B B6 FB 0C 4C 94 9C C9 6E 7E 94 E8
 77 F7 84 C8 8F 17 A1 52 FF 52 6E 6C 44 5D 59 64
 2D 05 C6 3A B1 1F F0 F5 62 1F AE 1A F6 6A 5C 00
 7E 7A 6C 6E 0D 42 FD 98 C0 DC 1A 6B D2 93 99 D6
 F2 84 BA 0F D5 7B 73 DC 09 36 9B C9 59 D1 19 D7
 AE C2 7D 04 71 E3 2D E4 94 BC B2 ED B0 19 11 2E
 E4 F9 7F 07 D6 99 BE 9E 4A 85 EC 3F 03 7D 25 6B
 4A C8 63 C9 FF 04 66 64 C7 45 33 8A 75 95 97 2F
 7C ED 0C 47 86 32 AA 41 F5 9C 2A F1 D8 9A 02 63
 BA 90 0A DA D6 92 83 B6 D3 89 E9 AD 9D F8 F4 FE
 B7 68 3F 62 1E 87 A1 BB D4 F0 4B 0E 39 12 86 07
 97 93 66 CA 43 4D 1B B5 1C 2D B5 75 AB 10 B7 4F
 DB 73 A3 57 CF 99 3F 35 70 D7 D7 41 57 09 B0 8A
 EA 7F 6B CA 21 10 B7 A5 F4 55 1D D7 B3 CB 5D D5
 DB 4D 5A 7A 98 F9 43 3A 81 8F A9 0D 13 FD 92 4B
 06 66 0E FA 1D 8F 23 96 5D F9 B5 B5 A7 8F D3 1B
 50 A4 A2 9C 7F 33 9C 57 63 DE 00 59 BA 52 33 F2
 C0 3A 86 38 C9 C8 AF 94 1E 96 74 4C 54 1A CE 39
 63 73 6B 75 9E 5D 7C 4D E6 0E 1F 23 F2 9C B8 7E
 F3 30 29 26 73 17 7D FF 63 F7 7D D3 4F A3 AA 48
 4F FC 99 14 2F 48 EC AF 34 4E 28 E3 27 3B 37 09
 BC 8A 17 DA 87 9F 70 3E 89 B7 34 F4 23 18 52 4E
 F0 65 C2 08 EC 0B B4 0D 18 75 4E 8D 54 0F 92 D7
 C9 CA 4B 7B C5 7B FD B2 0B DD 4B 43 D5 26 15 D0
 21 F4 20 EC F7 D0 CB 79 49 DD 03 67 0B 28 0E 2B
 C5 3E 20 25 69 98 42 EE 52 EA E1 FC 2D 69 BF 20
 FB 99 CD 54 EE 25 7F 08 5A 6F 4D 4A 04 1B 1E 16
 27 75 FB FC 9B 19 3B B2 00 4F 99 80 6F D4 D6 81
 FA 8B C9 3B D6 34 BC A5 89 2D 1E E2 56 82 81 60
 44 F2 36 BE 3C 78 94 BD 38 E2 47 24 48 F8 46 26
 D7 D2 51 E0 72 25 22 AC A3 67 55 36 7F 8D 19 D2
 BA E9 FD B8 01 B1 20 B9 B8 FB 67 14 A6 04 FB EA
 86 DD 44 D3 14 E4 2A 52 B1 74 0A 0D 04 4B F6 BC
 B6 5E 24 51 37 2F BB 17 E4 C1 90 FF 7D 1C 2E B3
 77 91 90 F8 38 83 61 05 D3 10 AA D0 C4 D0 EA 77
 69 73 7A 25 D0 DB 54 55 25 9F 7A 93 E9 B7 0E 9E
 11 2A 72 E1 90 C2 E4 13 A7 00 C7 00 0F 36 92 D9
 F0 E6 88 FF 0E B7 F1 A7 F1 F7 52 5C E6 EB 35 CC
 EA 99 AD 49 B1 82 C2 D2 8F 4A 29 BB B9 B9 EC 29
 87 97 32 48 35 DD 7D 03 08 B6 72 84 66 33 2E 32
 C3 82 8E 2F C7 42 C5 48 1A 05 66 DA 55 E6 91 CA
 46 14 E0 83 5F A7 F8 D4 F4 3D B4 94 9C 4A ED E5
 2F AC 28 02 E2 BD 0C 32 D4 2E 55 D8 91 B4 D5 F6
 37 B1 26 23 D6 56 FF 31 63 75 22 27 7F 2E 67 F6
 6F 60 C7 44 0A A4 94 6C 98 AD 65 73 C3 59 02 C7
 FB 0D 95 C0 D4 59 57 37 39 98 EC CE B5 AC 14 C6
 7C DC 05 EA 59 1B 20 6E 2F 04 DE 93 DD 2E CF 5A
 B6 44 4B BE 92 1D FC 87 D2 3E 80 59 A5 5B 70 E3
 04 56 A0 8C B2 47 D9 89 82 43 FA 42 5A A7 C2 E4
 96 E9 3A FA 9A 96 26 47 52 6F 0D E0 63 25 58 0A
 0B 21 2D F2 C6 0D 63 E9 00 8A B3 46 14 8A 78 00
 B8 7A A3 2C 48 93 4E 9F 85 89 44 70 B9 FE AD E2
 2B F9 9D 12 99 04 B6 D7 23 C9 D5 7A 71 35 8B 3D
 C8 AD CF 81 E7 CB A9 57 90 22 3C 7B 72 B6 C8 EC
 FA 7A E6 AD D6 F0 9A CC C8 D2 D9 3F CC 11 1D 1C
 ED B4 24 38 A3 44 F2 C8 B9 D5 71 86 8B 71 AA 63
 BC 2D 0F C8 F3 EA 48 14 A4 59 CA BB 0B 60 B4 C5
 A0 A2 45 D8 D9 02 9F B2 85 77 85 DE 75 6C D2 0B
 2E BA E9 95 D4 06 14 68 D8 86 3B 12 DF E0 25 3E
 9F 83 09 32 E5 30 9E 0A B9 AE 7A D0 46 7B CE 5C
 D7 E6 58 97 DD B9 CC 84 A2 05 39 9C 11 48 D9 EB
 F0 AA 2F C7 44 79 01 3C E5 61 C6 2F 9D 5E 80 BE
 33 FC EA D7 28 8D 2B 50 11 7D DA 03 11 DD 56 E0
 91 B6 04 15 A1 30 05 F6 A1 D2 94 A2 77 21 DE 09
 4D 31 B6 A2 C5 F8 A7 5F F9 97 11 DA 57 54 92 FC
 24 62 77 C3 04 02 AF 75 9C C2 0E AC 3A E9 CC CA
 A8 39 84 6D 9B 98 BA 75 FD 69 87 BB E1 9D 3D ED
 22 07 8B C4 24 D0 AE 1A 4F C3 7E 13 CE 22 13 F0
 AA 66 69 7E 95 ED 18 51 B1 47 3D B3 75 92 1E D6
 64 86 CB 77 4D 8E 07 56 BD 39 E5 87 DD 81 E6 63
 8A 9B E8 56 4E 66 37 DD CA 88 9E DD 27 D2 D9 0D
 E0 34 77 33 2C 7A 7B A3 5B 97 C4 B0 91 4A B5 12
 6E 7A 2A 09 F5 49 7B 3D 20 05 C1 2F AA 05 17 B5
 C6 A6 63 43 1B DD 9E E2 11 F4 68 70 B9 20 F3 C7
 EB B1 3C 72 33 54 6C A4 7F 3E 24 B1 E5 EE 82 AE
 5E C2 72 7E FF D8 41 18 F1 C0 ED E3 F7 06 E8 54
 A1 E9 B8 DC 9C D4 8E C6 6A 6D 84 FA DF 07 58 2F
 44 A0 70 A6 77 44 7A 1A C4 41 BA 22 35 1A E6 27
 A9 D1 85 81 B5 94 F3 6E B2 C8 6B 28 02 AD 2A F6
 38 38 A1 B4 00 31 42 33 A1 02 97 63 18 8F 8C 73
 48 5A 60 F2 B3 77 92 A8 CB 60 F9 F4 D7 B6 E4 B1
 18 E3 BF 19 32 80 19 DC A3 8B 28 D1 30 99 92 E1
 0F 17 10 7A 83 08 CA 8F BF BB A6 5A 0E 28 50 84
 DA 17 07 7C 21 DF A0 D4 5F B8 4F 54 91 2A 3A FD
 CB C8 18 4B 35 96 8D 8C DA 78 56 32 91 BE 95 35
 A8 6B 7B 1A C3 AB E4 D1 B5 FE D1 AF EF C2 FC 08
 2E 5B F0 3F DF C5 8A CB B0 E4 E2 A2 91 A7 AE 6F
 70 C5 6E FF 67 59 75 86 0B 40 20 DD 3B BF 4C 6E
 7C E6 D1 1D 6D 70 BC AC CD 61 B7 2D 2C 12 56 F7
 5D 39 B8 70 9D 1A 82 FC B0 29 F8 27 D6 E4 83 5E
 0E F5 C4 1A B3 94 02 C6 EE D4 F1 7F 97 BA 2C D0
 11 D7 56 24 46 6D 5B 09 9A 85 35 2D 08 C1 5B 7B
 FF A7 D4 18 AE 16 A2 07 9F 2E 95 F8 FD 93 8F 2E
 D8 4F A2 11 5B AD 6F CD 53 43 AC C2 AA 9F 25 B4
 24 9C 05 D0 FB 32 EA DE 43 14 4F CC 62 9F F9 00
 A9 B1 5F A7 D9 1B CD C0 E5 E4 9B BE 42 48 E9 6F
 87 1A 1E F2 52 98 9F B3 15 F1 6F 17 F8 5E E1 7D
 36 E1 06 55 5E CF 7F 64 E7 BE CA 82 54 9A 05 0B
 93 E9 3B BA D6 38 4E 39 5A 6F 6C A3 30 36 5C 10
 B9 DF 82 36 FD 19 5D 1A 69 0B 04 83 19 56 1A 3F
 C0 B6 44 1D 80 37 57 B6 11 21 E4 EC 2B 00 0B A0
 0C 7D 13 0A 45 F8 E3 1B 94 28 FF A9 44 BD 95 D0
 18 DB 38 B7 AC BB D2 DF 18 18 31 2C 19 A1 06 4A
 4C 3C 27 2A 60 95 44 20 26 9F 3E 68 C0 BD DA A6
 ED 48 44 96 A6 3A 22 F3 B6 F8 8C 54 BB C7 22 C3
 85 4B 98 14 07 78 0C A7 B5 39 4D 0A 2B 51 AF CB
 23 8A B3 F6 63 66 FA C0 8E C7 C4 E9 71 F6 23 67
 23 4F 9B EA 1A 16 93 E8 9C E6 61 08 71 90 A3 1D
 B5 42 30 93 30 63 51 CB 91 3A 52 0C 2D 30 8D E9
 B6 4D 12 67 E6 CE 91 5D CD 9C AF FC AE 20 3E 50
 EB 69 25 3F 83 F1 7B 17 F9 94 F5 89 CF 11 F0 AC
 C4 08 42 67 28 7D D5 69 23 E2 00 61 26 40 01 B5
 AD B0 BC 3C 9A 5F 92 FA 02 2A 13 7E 75 B9 8A 1F
 8C BB 3D 29 D8 68 49 48 86 27 33 67 69 7A BB BB
 63 6E 00 B2 93 ED 3D 8C 6D 2A 17 87 20 CF FD 1F
 A1 5B 48 71 87 72 44 73 30 98 F5 D4 02 2D 52 8B
 91 DF 48 AA C2 27 23 D1 66 DA 92 8C 93 E7 12 43
 04 DE BD 0D 3F 07 41 61 04 6F E2 E7 43 84 AA 79
 25 98 82 4C 50 74 73 1B 96 F7 4B 9E 3D B3 E4 56
 EE 6C 04 E9 A3 C2 6C 3C 40 6A 78 8C 59 A7 F3 AF
 BB B9 07 B4 F9 A2 F7 26 26 F3 B3 81 81 5E 45 50
 98 D7 4A B3 2C E4 11 A8 98 15 57 29 00 20 57 B9
 A6 F1 AF 62 0B 91 AB 35 28 F3 7C 3C 84 8F 53 FB
 6A 29 E5 93 57 C4 5D 42 38 E0 1A 74 E4 59 67 6F
 9B 85 C8 4F 7A B6 3D 9F 2F 08 05 88 ED DB B6 35
 14 71 2E 66 EB F2 DA 20 6E 6A BA 5A F5 EC A6 45
 39 F2 D4 DD F0 A1 5D 9C 23 4A 44 56 64 DA 1E 35
 BF BA E0 12 D2 B7 39 86 EA B6 B2 EB 83 20 5D 10
 62 C2 12 29 C0 B3 04 2D 74 99 66 68 FD B7 65 8B
 09 A4 59 A5 FB 86 45 A9 E3 BC E1 F6 EA CD B9 AB
 A5 4A BD 1B CC B8 35 1A F7 B7 35 C0 C6 A9 34 70
 EC DD 8D 78 59 ED E5 99 4D F2 42 58 64 CB BF 64
 F7 43 17 5B E9 82 DE D5 41 9B A4 19 A6 17 65 A2
 53 72 B8 00 68 97 15 02 FA 46 C2 FE 09 57 A3 EE
 13 30 F7 24 D0 10 54 72
* End 1058178662 574338384