* LTspice Encrypted File
* 
* This encrypted file has been supplied by a 3rd
* party vendor that does not wish to publicize
* the technology used to implement this library.
* 
* Permission is granted to use this file for
* simulations but not to reverse engineer its
* contents.
* 
* Begin:
 D4 AE 96 B6 53 05 BB F8 BE 24 8D 36 9F 83 A7 23
 9B 96 D9 EA C1 5B 0C BA 76 23 8D 4F AC 4D 0A 31
 F5 93 BF C6 10 60 2D A2 BB AF 58 3F 74 22 2C 8D
 C7 08 B1 04 B3 11 D3 01 C4 F9 C2 8C 96 A9 B9 AF
 A1 BB 02 B2 A9 7A 0A C5 DE 9F A0 79 8A 53 E5 20
 30 0B 45 11 33 40 25 0D 74 72 C1 03 8A 58 82 02
 4D 10 4B A1 76 9D 65 F9 9B DF 1B 87 FE F2 31 01
 93 A1 B3 D3 26 45 19 24 A4 33 5E 3F 58 EF B8 C7
 79 E9 F2 22 40 25 DE 6F E7 ED 46 53 82 FA EA BB
 59 E7 50 F2 B2 2F 4B A6 4A D5 E6 95 B1 5B FB 82
 99 8B 8E D4 B3 07 0D D6 46 2D CC 3F 61 46 EC 1A
 46 61 E8 D6 0C CB C0 9A 72 69 E8 88 0F D4 E3 44
 26 DD A5 DC 5B 13 83 0B 95 95 AE F9 06 94 B3 4E
 31 B0 0F 86 6F 74 F8 C9 31 AE 51 CF 8C 35 FE CF
 55 01 27 7F 51 FB 05 10 ED 12 B9 D9 70 69 92 74
 4C 14 83 F7 19 08 DA FE F3 30 16 BB 85 8D D7 D8
 4B 8D 79 CA 48 F9 91 57 28 81 30 6F BD 3D 8C 1C
 AD 58 B7 8F 05 FE CC 54 C3 FD A4 B3 9D FF D0 AC
 1C 62 68 3C E1 6F F0 BB 33 A0 8A E1 6D 0E E0 FB
 01 5B CD 5C C3 A9 BD AB FF B5 69 91 D9 5D 2F D3
 5D B7 6C F4 33 62 57 2F A7 1F 59 E6 EF ED 82 FE
 32 37 91 35 90 82 61 B5 F6 62 BF 40 8C A2 FB DB
 E4 C6 ED 69 1C 8B 5F DE AC 59 87 B4 9D EE 34 F2
 EC 6C C9 53 24 B8 C6 A3 67 4B B2 7A 64 AD D9 DA
 07 28 76 AD 6D 8D BC 5F BF F4 FC 06 69 68 DB F7
 40 D0 0A BB 4D F5 B8 D7 74 0C 7E A8 7E 23 92 F1
 1A 05 8C 05 0C 88 DA 59 12 7C 49 DE A0 8F 22 69
 31 89 57 0B B9 F8 8C C7 1D 69 A9 E3 29 20 B7 48
 A4 EB 77 6E 15 12 AE 2B 05 B9 C8 4D C1 9A 1C 9F
 20 1F 0D 3C B5 28 A9 B8 F4 47 50 ED 5A DF B7 9E
 70 4E 7C EB A0 2A 35 59 5D 9D F7 FA B4 08 4A 22
 F5 70 AC 94 71 9B 71 EB 70 9D A8 F9 33 E6 6E 92
 59 71 46 74 FE 0C D9 34 97 FD 1D D8 18 0A 9F 5E
 B6 9F 61 7C C1 29 58 B0 B0 DC 37 B5 5E 2D 17 22
 FF 31 15 6E 43 37 F2 67 A6 55 9F 25 85 30 28 A0
 AA 7B 08 94 97 12 A3 F4 0F 0E 65 91 6B 9F 1C 33
 F2 3F 25 28 29 22 C1 3B F4 A7 55 51 6A 62 D6 50
 9F 2A E9 33 A8 1E 5E 38 B6 B5 D2 19 F7 5B 89 20
 86 A3 08 F1 B4 CD 75 64 45 16 DD 40 1A 60 7F 44
 56 80 26 0D A4 5C 0C A2 A3 BA EE 9D 69 34 34 5E
 9D FA CF F3 62 68 88 93 38 6A D0 9F A7 CC E4 6C
 2A 79 55 7F 33 A7 31 F2 61 F5 C7 78 DE AA A8 7D
 48 9D 75 2B 06 AB 13 CF 98 20 61 C5 89 63 BB 4F
 C3 6A 16 08 6F FA 32 3A F8 9D 9E E0 E8 17 37 A4
 D5 09 D5 BE C7 83 AD 7C 5E 62 EA 83 40 89 26 8E
 B1 9B 74 16 E1 09 63 A7 97 75 02 01 78 C0 22 37
 35 6A C1 39 CD 22 C0 26 09 4E 17 8E 7A 6C 86 A9
 03 D9 32 BB C8 A1 B7 90 8B 49 98 C8 A3 4A BD 5B
 F1 69 A5 22 53 3A 9C 84 DC 37 B2 5C D9 91 C9 B8
 17 4D 66 37 FA 82 B1 65 9D 90 EB BA 8E 3E 8D 80
 6A 81 00 A5 56 63 5E CA 6C C4 D0 95 F3 51 BB 04
 32 27 F3 31 4E 6F 57 DD E7 88 FE B7 2A 52 A3 3E
 3D 43 A1 3E 04 38 7D E6 C7 C3 8D 99 0F A3 B3 57
 5E 7F 47 08 BE BF A4 9D F6 B9 A5 D1 5B B5 57 F9
 0A 0B 14 6D 0C CE A8 86 FA 2A EE 3A 0D F5 74 6E
 BC 9C 03 0A E6 94 AF 47 DF 43 2A 45 61 46 00 35
 0F 58 A6 BF 1C 15 13 03 21 A4 00 4F D4 72 3C 60
 0C A5 F8 37 56 FE 4E 43 F9 16 D0 E8 52 35 47 F1
 74 33 63 6E 86 01 26 98 8B 14 80 22 5B CD B8 57
 D9 80 E4 C3 88 A9 09 C3 06 DE 6E 3C AB 01 56 CE
 FD 0B 7B 50 8F A8 AF F8 00 93 A1 DC E7 60 9C D8
 3D 6B 28 8A 0D 83 EA FC 61 83 FE EE E2 7F 3D 61
 6B A9 13 D6 97 87 68 69 0F 49 2A C9 0A 48 51 64
 D7 44 11 93 7B 34 27 C2 99 D7 7C 53 13 C2 AC DF
 26 C1 C4 7A C0 F4 97 F1 F9 35 A1 82 78 1D 49 5B
 05 67 21 4D 85 C6 80 41 B3 90 CF 97 D9 7B 6C B4
 EC 11 1A C6 32 BF EC 4A CE 2F 0C 91 D1 53 F3 1C
 A0 6D 46 26 3F 1F AC 0D 64 AD 94 03 F9 07 77 CB
 85 51 AA C7 88 AE C8 79 4A D2 3C 5F 1B 31 01 A6
 4D CB D1 F0 89 66 ED 7E 6F C2 51 66 7C 56 8D 70
 A6 DC 33 DB 6E 3F BF 6A 46 8D AB 77 11 2A 2E DB
 C5 92 4B 35 49 DF E3 BE 37 D1 BA EF E7 BC E1 F1
 60 AC 2A 9C 6F 99 13 A7 7C B2 97 1D 90 E1 0F EA
 DB 9F 69 E8 3C C6 6B 55 2B 9E 53 51 76 27 DB A1
 BD 2F 69 F9 EF FA E5 63 EA 52 A7 1B 4D 7E 47 0B
 FC 26 77 85 D8 47 88 7F D6 22 FC 4D 82 B5 6E B0
 34 A8 7A 9C EA E0 FF 97 93 CA DD 42 35 08 3D E2
 01 10 01 1D DF 06 27 33 47 DF 2E 7E B3 09 51 F7
 F1 38 49 B1 8E 59 28 1F DD 72 11 18 55 2A 32 C6
 F5 49 E5 4A 0A B4 83 3B 4B EE 55 65 94 E2 DA 45
 51 2F 26 EC CD 0A 8E A0 6B 1A 4B 92 13 17 E8 13
 4B 58 A6 08 50 F0 EF E0 A0 05 BD 6E A9 CC 60 A0
 2E C7 88 06 93 54 93 3F 82 6C 9E F4 B4 BB FE A5
 E2 8D 94 A4 4D 52 EE C4 2E E5 BA EE 08 EE C1 D9
 DF 8E 3F 5A B6 7F 4E 00 44 5C B7 4D 83 63 D1 2E
 DD 5C 32 D1 9B C7 83 A7 BD 1C B2 81 F7 74 AD 53
 ED 1F 45 4D D4 84 69 C9 63 96 0B 63 F8 87 FD BE
 AF 66 9A 74 D4 07 AD B6 F1 A8 DE 48 49 8F CB 3C
 2A E8 2A D8 2A 7C 88 7D DC 6C DF 91 FB 09 B8 AB
 B9 7E AB 7A 14 28 7A EE 7D 1B 34 1A E1 68 19 12
 A0 13 48 4C 30 54 5C F9 83 53 AC E6 07 87 3C DA
 4D CC 31 30 A9 60 67 46 71 FF 5A 8F 68 8E 34 A4
 FB BA E4 F3 63 CC 91 3D A9 B5 1F 71 EA A9 EA F9
 98 39 35 1B 20 E7 A0 32 C5 45 0F BD 62 2C 9D 2B
 AF 9E 0D 7F AB F2 D8 91 EA CE BC 4F CC 25 97 02
 89 26 5D E2 C2 6F 00 3C C9 8E 61 19 38 1B BE F6
 CC CA 61 E8 16 E4 79 7A 7A 39 35 A6 9E B0 C2 70
 46 48 B5 F9 37 39 4B 1A E1 CE A8 CA D1 60 FE 0C
 01 50 17 CE CE 4F 41 F2 60 A0 8E ED 2C 80 08 F4
 1B A7 3A 71 40 04 FE 5A A1 D5 FE 83 2A A1 E3 D6
 6D 36 EB 63 A4 9A 1F 50 D9 47 44 AB 6E 17 F5 28
 25 24 82 67 4C F6 71 26 49 59 8F CF 69 2B 55 FE
 C1 76 29 EB CA 41 4A 12 0E 12 EE 9D EF 00 A2 F2
 3D 3C EF 3C FF 33 B7 59 7A D0 38 A8 0E 85 DE D5
 CD 6C 8F 37 BE FF D5 9F 54 45 07 2F C1 8B 8D 95
 46 0E 26 C5 D3 EC D4 6C 8D 72 66 8C DF BC B6 07
 B7 3E 2C 4C EB 4C F0 E9 E1 3A 51 94 86 7D A9 13
 04 49 BC 78 2A 37 EE 84 36 46 A6 0F 42 39 3C 71
 D4 7E 2D A5 8B 4F E6 54 93 27 72 7E 1C FD CE 84
 C4 BF 9B 4C 83 E0 6E BD 19 6D FC 3D B6 4F C8 40
 23 C9 9E BF 59 64 7D F8 84 26 1F DE AC 15 EF AA
 57 F9 06 0C 0D 0A 48 21 7A F6 6F 46 2F B0 98 E9
 86 E9 61 6D 98 97 B2 BC 5A FC 5B 1D 61 31 69 D8
 6A EA 33 24 4A 6A 8C A3 57 4D 5A 2A B5 54 D5 57
 54 CF B3 78 00 B8 E9 C0 5E B8 27 9A 05 5A 67 ED
 8F 68 67 71 D4 88 5A 3F EA BF 27 40 94 0C 20 ED
 3E 20 F0 79 7B E4 BD EC F0 AA 59 73 5E FD 0C 68
 0D 06 84 72 7C 2C 79 BB 2B 9A 74 7A FB DC C2 F0
 B3 6A 0B 09 7C E6 0E 44 01 03 BD C3 CC 8C B3 1C
 5A 3A 2E D2 96 5D AD 59 8F E6 85 A8 8F 49 F3 8E
 83 54 6F 3B E2 EB 52 23 91 51 99 88 DB 33 D5 09
 E7 DA B7 21 E6 88 B4 82 77 80 8C B0 72 FF 83 B3
 9A 12 1B D5 BF C3 A4 69 25 82 9D A2 1F D3 6B B7
 BE B2 6E D2 B7 52 A3 3C AF A7 A9 9E 5E A4 C5 BB
 15 07 7E 79 F9 7B 30 A1 ED 6E 13 AF 15 DE AE 44
 4F 60 52 C6 77 13 01 D6 09 BD 0F A9 30 7B EE E5
 F4 3B FC 27 C4 54 26 B9 B5 54 EF 87 7E 97 4A C3
 6F 2C 1D 93 4F 82 96 09 AA 94 D6 EE AD B8 D6 AD
 AC 4A 42 25 1C FC 09 33 E7 AF B8 49 B1 99 C4 F6
 F1 77 93 E1 C5 D1 8B 7F CB E9 F1 7C BB D0 62 10
 9D 03 F6 3D F5 CA D0 EC 8F 9E 31 43 34 0E 20 19
 0B 29 60 BC 51 FE 14 0A A4 C5 FD DE 11 E9 F9 DD
 EF 38 F3 71 97 0D 6D A1 F8 F5 35 1A 64 2E A1 A3
 01 6B EC 87 8D F8 38 15 E5 4F F9 D3 B4 3D A4 EA
 F3 F2 D6 4C C9 7F 83 39 05 0C 63 06 DF 09 06 28
 69 F9 04 DA 3D F8 38 04 53 C9 9D 3A 8B BA 69 CB
 D0 FE E0 9A 72 4A F3 2A 55 D3 7E 1B F8 DE 53 1A
 26 87 43 35 8D BC 15 42 FA F4 7C EC 02 DF 18 84
 38 2A 79 EE 71 6D CC CE A3 06 31 67 95 CC E4 BA
 5B 89 66 DE DB ED 5B 5C E3 AE 3A 0F 62 7C F7 EF
 48 31 E0 59 B1 F2 03 22 64 A5 3C DF FA 18 6B 09
 AF D1 B9 33 B1 6B 83 45 CD 01 B0 A2 30 29 6A 67
 B4 14 AD DD 12 5C 89 1B E2 94 32 43 C3 C5 A6 99
 1E 45 49 75 09 43 30 5D 93 1A B6 41 99 2E 4E 81
 2A FD AA DA DF B3 B2 D9 DF 3D 1E 0A 1D AC 21 C3
 7F 5B B5 76 10 69 B0 B4 FC CC 12 B6 8A CD 8E BF
 64 A2 DF 66 64 82 47 72 6A 54 06 25 8A D4 D6 EF
 EC CC BA 1E 71 C8 B5 E7 D7 17 AB 18 6C 00 35 7E
 B9 D7 C3 DF 2A 6B CB E6 FB BD BA 26 69 4E 1B B4
 85 52 A5 DF 4D 9F 9E 3F 51 C2 8D 46 DD A3 58 1B
 58 C9 5D BB 13 FC B1 B2 5A B4 AC D0 0F EB B6 71
 C9 D5 45 D9 41 69 7B 73 B3 67 A8 E8 77 0E D8 8D
 73 50 88 23 16 E9 6F E1 8F A4 5B B4 3B 0D C3 54
 34 07 D5 EC F4 F3 93 2E 8A 67 51 16 38 FD 1A 96
 6F 41 EB D7 D6 1B 7F F0 F1 06 DD 75 99 D1 28 47
 8B 8A E1 C0 DB 71 00 BF F5 A6 1E 08 E4 07 7D 8C
 EC 63 04 DF E4 B7 F4 3E D7 B7 7C F5 B7 98 50 1C
 F4 99 D0 5D 7E CA F6 EB E1 E5 DF 1B 0E 6E 09 8F
 A8 F5 F1 58 67 70 27 DC 8F A6 79 4C 0E 87 91 2B
 8C 5C 8F 22 C1 67 4E BA E0 B5 4B 58 51 66 EA 48
 02 34 AD 2D 78 1E 21 ED F3 94 87 7B CB 14 4A 18
 20 F3 18 B4 91 3A 7D 83 08 19 8C 29 D6 79 08 24
 64 F5 C7 69 D7 11 44 9A 58 0D 11 B2 30 0A BE 5F
 2D 35 74 9D 05 69 71 03 9D A4 CB E4 6B 41 CE 7C
 9C B5 5B BF BD 3A 74 2F 38 95 0C 8E D0 04 18 6B
 78 7D EB 9D 42 77 1D 57 69 B1 B7 6F 2D 07 85 2D
 A7 12 8E 71 E3 7E 84 9B 03 37 FF FE 21 D9 C1 4B
 83 EB 76 A5 28 DA C1 CF E8 7E A6 E9 EC 9A 8F 88
 4F 99 82 AE 86 95 CF D8 FE F0 D2 3B 9D 24 AD 86
 3B C2 AC 8B F9 9A FF D0 DB BB B5 7B 13 68 7B C2
 8F 21 2C 30 29 A8 94 1C D4 0F BE 00 DC A4 6F 6C
 51 C0 73 D4 9C 23 E8 02 61 7A 3C DB 28 E6 FC BA
 81 30 7B D0 30 3A 47 81 6E 7E DD 8D BB AE 7B CD
 88 A8 17 68 CD 56 82 B3 FC 32 25 9A 90 F4 69 E4
 FB 99 40 22 5F 5D F9 29 28 26 BD 03 CA 40 31 F0
 70 BA 29 1E 04 79 F1 D0 0F 83 ED 8C E1 2E 66 89
 4D 57 8B 01 27 15 A1 6D 12 52 0F D6 86 6E 68 2A
 38 FC 17 A9 25 88 01 FB D9 26 A0 4D 2E E8 B2 68
 F0 15 68 B5 4C BE 8D 3E 10 DF DA 60 D3 BF 28 6C
 CE 3C 22 FE FB 8C 8F AD 1F 30 59 B1 B8 A4 FD CA
 7E 45 1B E8 7D 04 C2 17 0B E6 13 FF 28 C7 AE 8C
 23 E2 DD E2 23 93 06 7A 58 0B 3D E4 80 92 56 31
 AD 97 0D 3E 75 48 8A 06 E9 B0 74 CB D4 A0 CC 88
 BD 5F 1E E9 E6 16 12 6C C9 9C 9F 1C 2C 5C C4 23
 18 37 B4 F0 65 35 7C 1F FA 68 AE 2E EB 39 E5 AA
 C5 24 B7 06 37 64 9F 1C 9F CF CC 4C B8 58 CB 42
 FF 30 97 C3 0B 4C 2A 96 49 B3 0D 15 07 F8 B4 3A
 4C CC 59 C9 C5 94 69 AC C7 57 E9 99 67 6E 91 0E
 0A E6 A7 E8 DE 5D 43 BE C7 B4 D9 15 9B A5 46 7F
 23 B0 49 46 5E D2 79 60 0C C3 BC 94 2F 52 9A CC
 C9 C9 77 66 4C 7A 40 55 37 81 32 E7 C7 F0 00 2C
 EB E4 30 84 39 58 6A 99 BD 0B 4B B9 09 C2 C5 EE
 8A 7A 29 4B 20 C1 CD 4D A9 C6 77 F2 31 1A 17 91
 89 75 97 05 3E DB AC 9F 62 62 02 03 54 12 09 FE
 B1 4C 69 52 1A 9D E3 A4 FF D3 4D E2 59 44 3C 15
 3C 0C 50 83 F6 C1 9B B0 12 DE E9 CC 3F 6C 2E 02
 10 5B 43 FF 4C E0 8C 2B B3 08 F2 BE 92 AF FD AF
 C5 40 CC DE F0 B9 89 79 5A 09 B6 BD F4 2E 5C E7
 15 FE 3E D5 58 18 74 E5 6D 93 E9 40 90 A3 41 0F
 AD F5 BF 86 49 7D D2 DF 52 4C 07 A0 B8 3F C2 F1
 B6 D7 DD E5 11 97 F2 1B E5 8E 95 E4 CB 4B D0 9C
 3A B9 47 D3 41 33 E4 DF 5D CB 17 DC A7 B5 29 77
 EA C9 A9 29 FA 87 98 B4 41 D6 FB 33 03 A9 80 AF
 4E C3 2E 4C D0 E6 3F 4C 19 85 AA DB 79 27 05 8F
 38 2C 76 9E A8 10 9B 84 CD AF 39 0F E4 FA 3B EF
 66 F7 2E 87 20 AA 81 F2 D2 0B 5A B8 DA 44 99 DC
 51 20 C4 FA 63 8D 6D 47 1D F0 E2 17 A7 A3 A5 11
 15 E8 80 23 29 8F 80 B6 C3 C4 01 B1 EE 3D 3D 86
 8E BB 05 63 D0 89 D3 21 74 37 9D 68 CA E6 6B 3D
 34 59 37 9D 55 E9 FB 25 1B 5B FC 02 FA F1 CA B1
 55 D2 62 FF 43 D0 1D 12 81 31 80 56 D7 F9 5A 33
 04 25 CC 8B AC A5 C2 31 78 2D 09 93 E9 D2 06 A6
 36 3E 78 F9 68 39 84 CF 53 A9 82 33 84 84 96 41
 91 C4 A7 B4 CA 0A B3 AA F0 62 DE 6D 4F A5 40 1E
 A1 73 94 E4 4E D6 EA FB D3 37 B2 49 9B 93 99 FC
 58 25 4D 20 22 FC 7E 01 05 D9 CB D1 6C F6 EC 3B
 9F 8A 7D 7A B2 83 77 7F AE B5 AE 60 75 00 D6 19
 C9 1E 2D DC E3 6C 36 BA 75 4C CC 79 9E 57 1A C4
 6D A7 36 79 57 9F 38 FD F7 DF A2 61 1C CC DE C2
 D5 B8 15 9A 64 2D 92 08 FE BF C6 91 53 C4 EF 30
 A0 45 73 F7 B6 91 6C A7 8D 36 68 9E 5A B5 E2 66
 A7 CB 5E A5 70 CC CF A1 05 63 0C EA 13 4E D7 A3
 5A 30 42 90 6C 8C F1 11 70 2A D6 0C DC BA DC E5
 2A 6F E7 36 63 B0 BE F8 1A 13 FF 19 44 60 72 FD
 28 8E 6B B1 56 32 F8 22 DE 2A 08 4E 6C 86 9E 2B
 83 07 9F 0E F5 BC 1C FB 19 5A DA 3F 06 74 96 C4
 82 87 76 E1 7D 97 A5 80 BD 6B C2 5C 9C D8 AD CE
 F9 5C 8F D0 33 D6 BE 83 07 73 CF C1 5D F0 CE 32
 23 4E 5B EF DE 21 98 9E 39 78 97 5A AB B0 39 98
 F1 77 88 FD 8B 70 55 8F B6 D4 23 25 F4 14 8F A6
 17 6C B6 ED 3A B0 51 87 3F 0F AA CB AE 2A 2C B4
 DC 83 28 89 9A 99 DD A4 23 7E 7D 00 41 99 10 A8
 5C E4 09 CB 6D 7C E6 1F 58 DD 7C 55 4E AA CF 42
 0A 65 88 68 FD 90 26 D5 CF 6E 71 C3 6B 8B 61 D0
 CC 28 15 E2 8F 42 B8 13 DD 4D FE 72 54 D1 EE 40
 05 04 6A E5 42 AD C7 34 CD 50 AF 3D 47 79 A9 5A
 E5 BA 54 BE EB 76 CD 27 6F E8 A3 48 B9 A3 56 C4
 D1 76 0E E2 D8 2E 4C A1 89 9A F7 47 96 DD E3 7F
 9C 5F 1B 61 75 19 DE B7 C2 80 0A 10 C5 09 28 00
 17 1E B0 9A 97 5E A2 DA 33 17 7F DD 84 E8 FE 7A
 9B BE 76 60 9F 3E D8 62 53 92 E9 1A 67 0D D7 74
 D2 65 08 BA 7F ED 00 C2 7F 30 AE 54 61 29 9A 1E
 58 3B 3D D4 29 9F 7D 7C ED 4B C5 9E 95 FC 19 BF
 AC 95 A2 F9 40 D3 73 C2 FC CB 92 2B FC D3 1A 6B
 0D 01 20 BF D8 E0 FD 06 B0 05 A3 2D E5 27 22 CB
 5A 15 96 C6 37 64 1A 56 F0 34 C8 15 8A 61 71 C4
 F0 C1 1B F3 F7 E1 EF 68 7E E9 5B 5A 51 CB 52 CA
 5F F2 58 90 F6 58 C4 1B F1 C8 5B B6 67 BA 46 AC
 C0 72 D4 96 86 83 ED 6C CF 27 1B 27 1C 21 C3 CA
 A1 18 83 A8 69 F7 74 0F BD FF 26 DE 67 C6 B9 B6
 12 03 47 35 48 71 EB 01 95 7F 15 23 C1 4B 1D 76
 C7 24 CA 76 4D BD E0 A3 48 3C 4E CA 34 A3 80 93
 5F 35 D1 53 E4 FA 37 29 1C C6 94 6F C8 A2 49 D4
 AF 27 3F BB B0 0B 4C B5 95 09 D3 53 34 62 0A FD
 C6 FC E6 8D 44 90 A9 33 77 02 8B 3C EA 6D F3 E4
 9F D9 CA 80 6D 56 60 F7 15 61 E7 A7 19 43 49 BD
 F5 70 2E 69 18 1C 51 A7 9E 4A 13 14 14 6A 09 17
 9D E0 BD 2E 7E 11 55 FD 9B 1D 62 72 6C 38 06 F8
 A5 6C 07 63 E5 DD F0 44 80 6C 95 4A 00 99 EE 74
 1A 8A 7A E5 D6 57 7C 00 FA 8E 95 DE C3 30 12 9B
 CC 31 D9 21 E3 26 89 98 BC 8A 9C B4 FA 46 FF 3A
 23 66 31 44 24 A2 6E F4 A0 68 DF AC A1 A5 F8 50
 A3 36 D3 F0 B8 06 39 3F FE FD BE 97 04 BF A6 BB
 E4 75 DA 58 0D 7F 09 DF E1 62 24 73 3B DF 5D 38
 E6 43 ED 64 66 CF 68 B3 86 56 0B 6C AC 5F EA 8B
 FE E5 A1 43 F2 7E 76 84 FC 3F F7 8B 77 CA E4 6B
 27 F0 F5 97 FC EB D2 F7 47 8A 75 90 1C 5B 2D 36
 CF E0 C5 8B 49 CC 07 E1 55 30 9F 36 21 F5 25 43
 10 99 0B 22 7B 1A A3 E5 FA 4C 5C 04 DC 94 BF 49
 ED 0E 93 83 58 16 DA DF 70 AA 15 3E F4 FB 6A 5F
 23 B3 08 65 4F 49 EA 73 6C 9F FE 21 20 99 11 0A
 5A 14 43 A9 DF 87 D7 7D AE 8D 9F D6 8C 62 F4 CE
 EC 4E EC 31 B8 8A F9 E9 20 9C 8E CD B1 31 3E 2E
 42 5B D4 0B 89 DC 88 D4 4F 7C 6A 64 09 C3 7A 6B
 C3 3D 1D 3E 1D 4D 2D E0 AC 67 1A BC 16 1C 7E C7
 D3 A8 03 B2 07 AA 46 B5 31 CE C7 FE 1A E1 94 83
 47 59 D6 08 8E 33 A3 E8 B0 1A 71 FE 5A 89 43 55
 B1 2D 16 73 6C 52 C2 64 AF 57 3C 3A 13 8E 26 D6
 78 BB C4 A3 5A 85 C3 1B AA 72 74 12 1B 3A 36 D1
 8D 61 14 BD 42 72 CE 2E AC 20 72 3A 24 57 A3 14
 B4 00 62 64 AF 78 38 21 A0 CE 59 5D 0D D0 3E B0
 6A 4B 4C 78 BA B7 84 1B 06 97 A6 09 C0 F6 D1 41
 F5 E2 08 8F 03 C3 E3 D6 93 2B C2 32 D1 34 AD AC
 40 78 70 20 D1 F2 D5 58 AC 70 55 88 E1 8C EE D3
 BC F4 46 62 45 F5 25 99 13 85 77 44 47 DF CC B8
 17 B6 6D 53 F0 C8 74 4C 1C 14 85 CC C2 99 1E 77
 D0 EC 67 35 7A B5 CD CD 9D EF 18 4A 71 1D 38 CB
 89 D8 22 BD 41 F2 1C A0 29 A0 DB FC EB A6 BC CA
 2B 4B C2 D9 A3 14 BB 34 35 D1 3A E1 4D 1E 31 4C
 DA 06 D9 FB 18 4B D6 40 C5 BB 40 C0 55 65 D6 42
 40 24 2B AC 07 57 B0 03 BF 1B B3 8C D0 39 8B 7A
 7C 23 56 8C 92 BC 85 9B B5 CD 7F 14 34 3F 98 AF
 E4 B5 C2 B6 B7 64 EE 6C F2 4A 4F AE C2 1B 7C 60
 9C 9A A8 97 8D 56 67 01 35 D5 59 D1 28 64 03 CC
 5A DC 3A 3F 3A B1 06 BE 44 AA AD 41 2F 99 7D 2D
 8D 94 F8 87 BD CD FF D2 8D C0 49 9D B8 87 A8 D9
 8B 7F 4F 19 6D 2A E4 E3 DA 79 EB 80 1F E8 0F A3
 D7 FD 7F 2F 10 9E 94 7A 96 89 AF 55 28 A3 33 7B
 7A 20 FD 16 82 C4 11 4E 97 BF 5E 3D E7 B0 45 4C
 8C 72 02 50 A5 B7 9A 7B 24 BC 06 25 EF BC 4A B0
 80 95 18 15 81 6F 88 9B 33 DC FF 1B A1 DF 2A BD
 1C 55 65 B3 F3 F6 58 EF FC 42 B9 B5 A6 98 3F 56
 1A 57 28 F8 C6 44 57 5C 38 03 57 23 06 DC 29 EF
 61 E3 8B 1D DE 41 95 60 A1 5D F9 22 11 5B 6B 7F
 33 59 C0 79 A9 C9 4D 71 48 EA 76 2D D0 77 6D 7E
 21 B8 F9 C9 79 51 A8 0E C7 BB 1D BF 72 75 0E 39
 FB C4 DD 45 1E 7F DF 33 5C 29 28 0B 2E 7D D1 5F
 E6 1A 0B 94 B3 4E CC 58 F5 8E DA FB 94 E5 A6 4B
 57 5B 4A 61 5E 6B 83 42 7A 81 5E 84 A7 3B D2 68
 96 DD 5C F0 02 0D 87 5E A1 6F B7 91 35 0F 4E 61
 31 E6 56 43 77 85 4E 5D 00 DD DA 57 F7 7C C9 1F
 2A C6 43 2D 2D CE 9A C5 69 45 4A 23 DE 8C 94 C9
 43 EB 7E 55 50 2C 66 5C F4 26 33 E8 66 E1 7E 83
 9E 16 8D A6 9F BC 29 E5 42 C3 F3 DA F1 F8 FC 5B
 4A 19 9D CD EA FB EF 66 6B C2 EB 31 69 6C 8D 16
 19 0D FC 55 C9 31 4C 2D EC 5A DD 13 C4 BD CA 4D
 58 1C B9 4D 79 E0 F6 66 4F 10 B4 58 2C CE 13 B0
 CC 09 E6 0E 3F 23 D4 4D EE FF E2 2C 39 44 08 0D
 E4 36 B7 5A 83 F9 E3 3C 35 87 12 5D 3C F5 AF C1
 20 B6 F5 55 89 01 73 F1 62 F1 23 EE E8 16 38 CD
 66 CC D4 78 71 39 8F 96 AD B7 EE 3E DC DC F9 A9
 89 3B 73 4F 60 62 83 F7 09 41 31 E8 C3 1E 69 74
 24 53 28 F6 86 08 62 65 C0 99 FE F9 8F ED 21 59
 CF 66 91 7C C8 05 67 E8 79 EA CD 03 D7 78 D0 97
 80 85 DD A4 DE 42 E6 C1 00 6D 50 4C 09 E5 60 91
 BA 83 2B 50 61 BF 42 A6 FD 3B D9 FE 70 B6 DA 61
 0E F2 DD C1 95 42 08 F9 EC F3 2E 37 EE 0B FB 96
 7F EE 04 4C 80 0C 97 23 E7 41 79 42 F8 79 13 D0
 73 BF 27 38 9F 3F 42 86 87 B9 8D 28 69 35 6A 4B
 5F 9A A0 15 2D 08 6E 8C 60 AD 25 E0 60 32 09 EA
 EF 3C F3 A5 D0 FC 89 49 75 59 09 58 69 4A 88 AE
 A3 6B D9 AD 32 86 3F 9E BF 91 E7 DE 74 2B 86 B3
 72 E7 C6 7A 09 1E 35 36 A5 8C 33 5A 71 85 1F FE
 CB 37 97 9A 84 66 1D A9 9B D8 89 74 F6 14 B6 9C
 80 3E A0 AE 36 A4 C0 DC 6B E6 C6 B7 77 5C D8 3F
 49 9F 94 2B 48 3D 17 8D 21 C1 1C 13 F2 F7 C9 C7
 B8 23 80 18 0F D0 F7 F0 F0 EC 74 78 63 B6 A1 00
 6E 81 46 0F E2 16 44 9C 39 D6 6A EC AE C7 95 64
 DF 9F AE 50 FB D9 E9 33 C9 CF C9 49 48 84 FF 94
 E4 4E 68 E7 CD 0F 25 FE 81 E9 EB 20 E3 01 7B B9
 39 62 DE 7D 54 DF 75 0C A3 60 29 5E CC 29 D3 5B
 0A 73 EB 31 9B 52 5B C0 93 FD 16 A0 83 B6 62 71
 81 04 05 75 38 7A C1 04 30 7E E6 02 80 58 32 30
 9C BE C8 B2 A6 9B 0F 88 08 E8 A1 72 CD 20 A2 3F
 3F 8C 32 AB 13 1A 70 5B 8D C9 1C 2B C6 38 25 DA
 7C F5 E2 36 D9 5F 06 D6 18 C8 76 D4 D3 2C F6 13
 6F C6 1E CA B2 5E C0 1F 1B F5 1B 24 66 50 7C 6D
 83 3C 95 87 32 28 80 B6 22 89 E1 3C D1 01 A9 CF
 EB 0D 12 AF 43 C1 2E 08 8D B3 2D 20 6E 7E 48 B8
 4D 3F 6E 80 32 05 4E 2F C7 BF 30 F4 C5 23 24 6B
 DD 90 97 00 FF 38 3E CC 18 BB DD 36 5B ED 6C B3
 AD 77 0F EF F4 B7 85 88 50 7C 0D B3 3C D3 5E E6
 38 CF 84 55 26 2B 40 42 46 4D 34 F5 C2 F8 CF A7
 4A F9 72 3E B3 A0 51 C3 96 95 B1 97 E1 C0 E1 D2
 89 9F 43 9C 88 8E FA 49 14 86 6A D6 83 E6 22 A7
 FB 83 A2 BF 09 07 92 9F 41 4C 4A 5B 9F 68 10 CC
 11 98 35 3C A1 BD B4 B9 13 A6 FE 90 9C 93 BC CE
 78 CE 1A FD DF 7A 68 CC 35 D7 1D CE 37 B5 2E 8E
 8D 47 15 A1 82 15 5F 55 03 60 4E FA 58 F3 7C A7
 0F BD 6D 9F 57 82 F5 F2 21 2F CA D3 61 ED 54 4E
 D8 1F EB 1B 58 35 F5 4E 87 2F 3A 14 08 B7 F4 BF
 6B FC 06 17 C7 C8 87 85 1D 3B 13 29 8D 7F CA 35
 02 FE 70 E2 D2 A5 84 3B 38 54 58 D4 F9 DA 44 88
 E9 A8 99 22 09 CD 98 92 D8 BB CF 43 0D DF 3F 66
 2A 95 5B 5D 5A BC A4 26 B3 92 55 9C 4E F1 6D 7D
 6A CD 8C 56 F3 83 B1 17 E5 32 63 83 61 FC 95 B2
 82 77 49 A5 3A 05 A6 66 EB F1 35 79 D8 B7 9E DC
 D7 61 6D C2 5F 7B 75 65 0D DC 0F 17 92 90 66 A4
 9A 31 2F 35 25 29 CD 00 AD 69 D4 ED 80 5C 3D CA
 5F 87 38 39 DE 9A 2C BF 41 67 F4 07 34 E0 F1 D2
 2B 4B C0 63 F7 F2 1A 3D 3D 91 F2 3D E2 62 D9 96
 62 E3 71 A8 86 1C 6C CE E3 13 97 AD B3 B3 51 58
 79 1E 59 71 68 C6 56 BE 72 7C A4 AD AF 8D A6 B3
 F3 83 2D D1 C5 AA E7 E6 89 ED 87 42 1C E0 83 DA
 31 3E 01 D4 5F 59 34 E8 26 A6 11 BD 77 76 91 CC
 F1 8F 31 15 72 81 63 67 45 52 9A EA B1 8E 6B D3
 F4 E8 11 8E 51 16 18 C3 21 DA B8 62 17 E5 11 9A
 60 6F CB 13 96 4C 8C AC 65 78 86 5D 9F 3E 89 1A
 EE 49 9B 43 D6 58 08 37 03 07 5D A1 FF C1 EA FB
 97 50 74 20 18 99 C9 DC 5C 1D 3E 98 75 0D A1 C3
 DB EB DE 49 B5 C3 09 FC AB C6 F9 88 BD 86 F3 69
 61 15 B9 41 A9 EC 32 2B B7 C5 5F B2 15 1B 7A 6B
 F2 62 C6 B6 A3 DC 64 64 FE B3 61 CB 24 7A 4E 97
 67 90 2C 31 15 B5 AC 2D 08 DE C3 75 8A 48 88 A0
 1E 99 73 11 CA 29 4E 48 30 99 8D 13 D3 F5 27 9F
 2F 2F 36 E7 97 F0 EA D7 27 D8 E0 E6 18 06 0E 24
 67 85 F1 77 19 3C 54 35 58 5F 5B 1C 02 FF E0 A2
 8B 28 0A 70 D3 3F CA 79 5A F8 34 C8 62 FE 8B 4A
 C1 B2 C1 64 6A 99 7F AC FF 5E B8 78 18 A7 D0 5C
 2C 51 2F B2 7F 1A 12 35 A5 66 02 B2 25 AC E7 2C
 1E A5 F7 E8 E6 84 22 13 FC BF 00 0A 49 E1 9F 6A
 02 29 F6 E7 53 B6 12 C9 6D DD D3 70 06 D8 7B 53
 4F 1E A7 08 5C 70 81 66 2B CD 15 8B E4 51 F3 94
 5A CA DA 05 D9 3C B8 C3 B4 CD 2E 26 D2 CB 11 25
 35 15 6E 17 8A 6B 1B A7 56 C2 AF 1A BE 36 D5 39
 3D 11 AD 89 7F DB 9E 58 5B 6C 5A 81 A4 24 9D D2
 27 BE 8F 96 57 99 6A F5 BC 91 A5 86 7E BA B9 AC
 AA D6 67 C3 81 40 17 C3 1F 95 C9 DF 8C EB E4 34
 F8 54 12 94 CD C6 B1 75 D4 5D 26 77 1D 27 DD 59
 6A B9 10 E7 BC 53 09 57 D6 8A 25 DA 44 76 91 0A
 DE DF F7 C5 77 8F 38 3F 3B C0 6D 94 F9 29 B5 0A
 31 4B AF 93 55 5C 41 23 32 6C 45 EC BA 02 76 BA
 13 8C 87 88 12 68 63 0A D4 8D B1 62 AA E8 9D BB
 D2 F5 06 7B 53 90 16 9A 8E E1 59 23 1C C9 3C DE
 FE 53 8F 25 0A 22 26 D2 D7 47 63 40 DB AD 80 64
 71 A7 7C D7 B8 EA 4B 2F 30 CE 09 56 A2 C1 1F EA
 B9 A1 EC 51 84 67 BB F1 76 7F 19 94 8B 2A F3 2B
 57 F3 51 BE FF 1C 02 E0 E9 21 D7 CF C0 B2 D3 11
 E4 8C 1E 80 2C C5 EE EC 52 25 52 97 8E 28 4D 83
 55 A3 69 B4 3D D1 A6 E7 6A 90 72 45 1A 0A 13 3B
 EC 62 5D 8F B7 6A 1A 16 DF 74 0C FC 52 60 98 FD
 B6 63 87 FD 39 62 7A CA B9 99 5F E8 09 BF 8C 20
 62 4F 0B 91 68 A5 7A 56 4C 94 CA 39 32 90 E3 24
 8B CC C2 4B 73 72 2A C5 FA BA 4F D8 86 96 73 31
 AE 13 34 1A 88 5A 5A C3 41 5B 05 56 EB 33 40 0E
 9A 06 52 F0 71 E1 2D 11 9C DC 1F 55 45 7E 79 D4
 D2 BB 01 77 E3 CC FD 5A 35 D1 2E 6F 17 0D D8 9E
 E4 84 95 F8 32 D2 D9 73 96 40 D8 CC 54 BD 65 EB
 F2 CB 60 6D 97 4A 83 73 EA 42 22 89 E9 28 97 9E
 40 25 89 CF 53 B9 4B F3 D6 99 2D 4C 58 8C 5F 66
 08 61 69 3F 07 CE 4A 2E E9 70 7B E3 80 1A 5C 8F
 C1 C0 AB 0C 35 02 03 1D C9 2F F3 A1 4D 67 BD 20
 33 8F 5B 68 1A 84 1A 0E D3 52 2C C5 5E EA E2 F0
 C3 8D F2 04 85 03 A7 21 4C FE B4 7D AD 84 49 9C
 AD 31 9C E4 2F E8 B0 09 A1 F3 02 F8 93 6D 72 56
 60 CA FA 86 F1 97 98 03 1B C5 CF 56 49 A1 F3 CE
 83 7A 58 D2 99 E0 AB A4 13 1C F9 A3 E8 0B A9 E1
 B1 36 0A A3 F0 19 99 1B 67 8B 21 83 51 DB CC D0
 67 8E 15 FE FB E6 CA FD A8 BD 56 D3 6F 91 FD 88
 BE BE CD D8 A5 46 18 94 66 A6 28 40 9C 8A 32 F3
 9F F8 80 B1 B6 EE EA 58 8E 5B D8 4C 26 A1 6D CE
 8D D0 DB A4 6E BE BF 43 6C 46 A6 D0 87 F8 8D A2
 6B 9B 1A 2C 58 ED E3 9F 97 F1 ED DD 90 5C EC BB
 F4 E9 4B 0E 04 28 AF 81 C5 EC 37 DD 75 AA E2 A1
 82 F3 BA 3B 71 40 55 C6 0F FE 77 08 F0 B9 86 46
 B9 60 12 39 80 2F 8D F1 40 D0 7C F2 A9 8E DB 5B
 EA 42 F0 67 4A 95 7F DB 5A AB D0 5A CE 5A B3 39
 3D 88 46 8D 0B C8 C7 05 FB E0 DA 38 50 CE 61 6D
 59 51 45 47 A1 C2 14 DC 24 FF 64 F6 A8 19 A6 DF
 FC 77 CD D4 1B 5C 57 20 7B 56 EB 85 15 A5 2C 67
 73 A1 9B F9 B8 C5 2F 9D BB 77 FF 9F AA 40 30 43
 4D 2A 62 FD 0D D1 5C EC 17 9D FC 10 85 EA C9 17
 DF 2F 2A 1D 20 0C 26 7F 97 54 71 77 C5 84 BA E9
 F9 37 3C 14 94 7B 10 B1 CF 07 68 EB CD 7D 65 C9
 85 F2 FD A1 14 9A DD 33 7D 8B AC 16 61 22 A4 F9
 27 71 3E CB 0A 5A AF 1E 07 A9 D5 2F 5B 6B E6 2A
 71 60 C7 1B 16 AD 54 24 5E 2E CB 0C FA E0 C6 A9
 29 78 79 B1 B1 02 F0 21 2B 79 BD D2 F1 22 29 C1
 B6 81 5A 8A 8C 7E 56 35 2D 6A CE A8 49 37 B9 4E
 8F 95 27 4E 01 19 06 95 E6 74 44 26 49 24 A9 D1
 30 AA B4 98 9C 12 A7 D5 27 BF AC B5 50 F1 45 CC
 46 4B FB 81 EA AD 53 BD 2B 90 04 53 26 33 A8 5B
 A7 37 62 BA F5 76 CA 0E 5C E3 C7 C4 32 34 1A 08
 BB 46 4C 66 18 A4 19 9F 78 C2 AF 92 4C 12 07 1D
 30 F4 87 4C 5B 7E F5 EB A1 D6 7D 10 C9 4E B1 E0
 8E E4 32 23 CC 2A C4 DE 49 7F 52 2E 07 C0 7A 74
 8B 3F 13 A1 8A 66 01 01 14 1B F1 AC 3A 17 A6 64
 6A 40 92 FF AF CE A1 76 9F 27 08 44 D2 7A 2D 4C
 1F DF 69 37 3F A5 1B 32 4B 2F C1 6A 65 E0 D7 B6
 4B 89 F6 42 00 42 A2 F7 F4 E3 B9 E3 70 38 23 31
 B1 FF 7D F7 E5 9C BF B8 1E 47 ED 60 1E C3 71 8D
 20 F3 48 17 BD 53 EC BC 9C 94 3D 58 09 F0 C9 D3
 09 EE 56 5B 9F DB 05 2E 86 18 37 BD 95 A2 79 10
 BE D0 BB B9 1D 9B 8E BE 2B B0 DA 58 AF 4A D3 8F
 11 D9 78 93 CA F7 27 F8 9F 29 AF 17 80 74 5E 6F
 56 7D 34 DB BA F6 1E 41 1B 95 1F 88 B2 31 55 1B
 80 6F 34 49 75 40 AA 87 47 C8 44 C6 E3 53 3B C3
 B4 EC 22 84 F6 F7 18 FA 85 68 0B 34 35 B4 48 1B
 FE 2C A1 F5 A0 C8 C0 19 53 C2 7A 42 10 DE AE 89
 2D 3E F6 F8 34 1B A2 AB 2B 96 05 E8 0B 43 B8 3C
 3B FC 6C 7D 13 92 6B 30 6B 04 BF F2 4E 6C 94 8F
 69 A0 A7 66 2D 67 16 9C AB EC B8 66 FB 31 05 6F
 52 84 A7 C7 32 47 75 A1 E9 F3 12 AF 96 2D 3E 03
 C3 FA 72 CA DE CD A8 11 32 8A CC 3F 52 87 D9 8F
 A4 6D AC 40 43 E6 32 BC E6 DC B8 ED FE 27 5F 8C
 80 9B BC 9A D5 9A A8 09 5D 87 A3 9B 65 FC DF DB
 13 9D BF 08 BE B5 51 AD 76 64 FC 71 3D 4B E0 3C
 3B AA FA 81 70 92 01 B1 8D E2 81 06 C9 D0 48 19
 C9 6E 51 C3 0A 83 66 5E 8E 78 AD FA 35 43 67 25
 4E D4 78 B9 7E F1 70 04 2C C4 F1 40 12 39 3A BF
 E3 59 13 1D 4C 50 AB 30 3B 1D 3E 22 3B B9 E0 ED
 08 7F 84 9D 7C FA 6C 33 17 70 9E C7 70 28 0E 0F
 A9 3D 17 46 2F 63 D7 31 1F 76 30 3F 72 84 94 10
 66 FF B0 F7 7A 32 6F 2E AE 2D 39 20 F0 5C B4 4B
 0B FE 5F C6 65 B2 3E BA 02 FA F3 1E DB 37 1C 5B
 BA 2B DB 90 15 9C 30 20 AF 93 F8 95 15 C5 95 6E
 DE 50 99 F5 31 AD 41 C8 73 5C DE 15 75 7C C0 AF
 90 E6 DA 3F 42 21 83 D3 B5 10 30 96 0E 2F D9 D0
 27 FD 99 BD EC 12 F2 56 84 7B AF 00 7A B7 CF 99
 A0 37 D9 3B 2A 1C 48 46 71 28 70 DF 1A 18 C3 E4
 3F E5 69 FF BB D3 24 38 CC C9 F1 BB 2A D8 5C CE
 62 E3 B9 A8 F5 1C 60 31 EE D2 17 DD 38 51 5D BD
 A1 B0 C5 84 5B CF C5 9F 8C 6B 8F 4E EA C5 16 5D
 FA 1D A2 BE AB 7A 36 5D 2D C5 CE 54 5D 24 2D 8C
 48 76 40 06 A8 C5 B2 CD 86 A8 02 DF 11 DC 24 10
 8A 19 9B 5C C8 CC 37 15 1E 79 34 72 90 BF 4D 89
 C4 F5 EE 30 13 5E 79 60 A5 9F 17 9E E7 A0 48 E7
 F1 6F 3D B6 7B 41 99 D3 EB D7 2F 02 A1 60 54 94
 9D 16 49 73 8F E0 46 76 EF B9 D4 C9 2D 9D 69 98
 57 44 48 FC 6C 4D 2B A1 7A FA E4 12 AD F6 59 BD
 3D 48 57 D1 11 14 55 21 6F 7D D9 30 C2 C3 D0 BF
 55 CD 4E D7 47 EE 00 E4 A6 25 29 D2 5E CE 8D 70
 ED EF E0 9D AC E6 FC F0 3B 96 63 08 78 B8 1C BA
 94 93 15 36 03 23 A1 39 7A EA B8 B1 69 CD 01 D3
 F6 9C 2A 5B B0 FB F2 43 AC F1 BA EB B6 0E 33 61
 43 EA 4C F3 10 AB D3 1F 89 77 AD CC EA 9A DA 62
 5A E7 FB 81 0C 02 FF 9A D9 D7 25 FB DD 8C 24 B6
 71 0A C0 3E 4E 14 2E ED 8C 39 15 97 9C 23 8A 39
 11 D5 51 9D 3A EF 0E F0 9B 93 B3 F9 98 05 01 0C
 39 60 17 6A 32 91 40 2D 0E 48 B4 12 B7 CD 4D 56
 B9 4F D5 F7 1B 30 CB C2 77 80 FC 8C 2E A8 34 EA
 CE 67 EC CB B5 DB 4A AC 70 D4 A6 D9 71 DE AC FF
 8E 42 0A 80 53 59 68 59 6F 4B B0 0D ED 31 FB 3A
 C5 F3 A7 FA 01 83 00 D5 C8 20 1B 5B 86 51 60 21
 C1 C7 83 E9 48 B2 79 37 68 52 74 E8 F3 3A E2 4F
 01 68 34 53 9C 01 06 07 FF 4C 0B 45 8F 3F 23 84
 72 F4 36 E7 C1 76 D2 E9 85 7C 67 54 4A 57 F8 6A
 F5 E5 AC 41 EC 7A C9 53 9B 21 B9 E9 8A 90 0F 9E
 12 10 01 B2 E3 05 3D 03 6D 2B B8 C0 42 10 74 68
 A3 B5 DD A9 5C 55 01 34 99 56 7C 89 3A 12 92 F4
 2E 5C B3 F8 64 B3 39 79 A3 59 92 CF 04 BC 75 CF
 0E DB 09 27 CC FA 7B B6 C3 1A E6 9E 4B 83 F1 AE
 A9 B4 E6 18 60 67 2F D6 E3 EB 93 4D CB 1E 42 35
 E5 AC 26 70 7A 29 48 15 B4 46 E1 48 CB 3A 11 22
 36 E7 9E A7 32 C4 1A 22 43 94 98 36 74 BD D3 B6
 48 F9 2D BD EC C9 0A 15 E2 63 4C 5E 60 A1 C0 47
 49 D9 8D B8 74 8F C5 87 6D BE 21 5C C8 CA 7D 12
 C7 AD AA 89 48 B0 63 D7 C3 FE BB AB F9 0F 61 AC
 8B EC EF 83 A9 67 9A 3C D1 29 75 82 C6 9F 80 89
 9C CE 18 77 D2 BF D3 5C B8 E4 8E 8B 7F 5B C7 41
 DF F6 5E 9A 16 0F BF 24 44 A1 49 49 12 6F 33 C0
 3A CF CA 68 A6 0A 81 47 90 FA 40 6F 05 41 92 C6
 C9 0B B2 9D 66 A3 7A E2 74 18 CB FD DD 27 A1 D9
 81 10 3D 47 63 DE E7 BA 91 A7 39 24 CD 9B D6 E5
 0B 1B 84 CA 11 43 47 C2 32 D6 D3 40 11 B7 AA 07
 2E C1 D0 59 71 7A CE 29 47 1F 65 CE ED 3A EA 3F
 F1 75 B0 A5 16 24 E5 98 49 61 AA 96 CF 99 7C A3
 49 35 C4 E6 D4 75 04 17 E1 54 0B F4 6C 04 FB CA
 AB 08 78 AB 3B 15 FB 78 54 5B 38 C6 3F 45 AB 54
 56 46 95 C1 58 D5 D0 57 3D 0E DF 0D EC 50 33 F5
 6B 3D DB EA C3 17 CA 04 93 A8 BE 01 97 2E 3E 6B
 B6 7D 26 35 45 87 38 4E 92 9E A7 64 61 13 0D E6
 F9 8C C0 F0 1C 88 38 30 3C 41 D3 5D F1 58 BA BF
 D3 A5 17 21 04 AB A3 85 53 E4 72 12 46 EB B7 20
 A1 49 47 09 92 8A F9 ED 1C 23 B5 B7 09 B7 FD 0A
 9A 30 59 0F 16 BF 23 17 3F 94 B6 A0 52 4B DD AC
 E3 A1 CF 81 28 A4 A1 98 49 02 4F E0 3B A2 25 57
 11 61 1C CB 27 41 22 02 C0 14 BB F1 E2 50 A6 BC
 8A 88 BD 5C 4B 05 6E C8 30 29 1A D1 04 6B 00 AB
 B9 89 B1 27 4F 1E 54 07 72 55 EF 30 FC 3C F6 7D
 5B 8F 1B B6 B4 28 69 56 CD 57 12 61 58 71 A4 91
 B7 45 BD 10 C6 4A 7F 1B 11 73 14 DC 7C DE DB E6
 0E 87 85 F0 8B F8 83 F0 BF BB A4 0C 0A ED 35 1F
 68 31 EC 87 C3 1F 9F 51 B4 DF B1 08 E8 0D A8 3F
 C6 28 52 8A 4D 33 E4 D6 2F B7 F9 63 BE 37 35 EC
 0C 23 D1 57 B7 7F 0F BA E5 5B BC 6E 27 5E 2A 05
 CF BD 1E 43 1B 8E F0 07 45 9D 66 70 72 C8 F2 86
 DB 60 57 02 40 E1 AA C6 E7 01 75 70 31 F7 18 66
 31 CA AC 62 4B 05 AE BF 87 E6 A1 23 A3 25 C4 42
 6E 3A 33 5A 1B 6C 90 B6 74 C3 77 35 0A 8E ED 86
 1E A4 B8 5C 43 47 05 ED 30 73 DE 9C A4 4D 3F F3
 0E AA BA 43 AE DC 59 98 06 7E 7C BE AC AA 5E 7F
 A8 0F 9A 0A 38 A4 D9 95 AE 9E 0A F7 B2 7C F6 20
 8D 69 C1 32 29 5B 18 99 43 C3 A8 D4 85 77 8A 4F
 3A BC 76 E9 BA C5 EA D9 50 91 CD 70 35 BE A7 DA
 50 4A A2 FE 09 EE 30 2E 54 4C 48 39 C7 C7 9D 28
 E7 32 35 91 4F 93 F0 99 F5 9C D2 C3 44 66 F8 92
 9E 64 DF 50 F4 E0 97 FF 26 53 E8 9E 2E E5 D1 E1
 65 2A B7 3C 6D F6 8E E2 BC 3B E8 7A D7 7E A1 06
 92 3A 31 22 17 AD 22 83 63 E7 52 B0 C9 30 8E 14
* End 3262283345 327198875