* LTspice Encrypted File
* 
* This encrypted file has been supplied by a 3rd
* party vendor that does not wish to publicize
* the technology used to implement this library.
* 
* Permission is granted to use this file for
* simulations but not to reverse engineer its
* contents.
* 
* Begin:
 FD D0 D1 EC 10 91 4D BE 83 E6 07 66 25 5B D7 A0
 DF 63 60 42 34 11 30 D3 11 95 D0 AA F8 25 58 7F
 EB 93 81 B3 82 61 D9 08 5B A3 A0 14 E2 42 4D 34
 7B C8 3C 9B BC 4D 76 C9 61 93 71 51 B7 F0 60 9A
 2A 05 AA 60 2C EF 20 68 CA 02 34 38 2E 8F 4D 2E
 03 49 A9 10 AF F6 C2 86 EE 04 04 53 40 40 6C FB
 76 07 DB F0 55 3A 76 EE BD BB 8B 6E E0 25 02 E6
 1E B1 D6 6C FC 5E 99 CB 75 FC 6F F1 18 76 BA 40
 E6 0D 0D A2 9D BB 64 01 9D 8A 3A B5 3A 99 9B 1B
 74 A7 DE 06 D6 56 48 0F E0 71 3C 17 87 AD 58 E8
 14 64 41 83 3C 88 31 6B 82 EC 41 8A 53 9A A2 71
 31 7E 7C A9 23 BA 7A EF 87 0E B8 72 8A E5 96 09
 0D 5A D8 9D 4C 57 A9 41 EA BE 97 38 D0 E1 A2 FC
 6C 22 CC 1B 2D EA E8 CC C2 E1 01 DD C3 E0 B6 DE
 8D A2 21 26 B8 B5 6B 85 89 EB 2B F7 79 19 26 24
 39 8D 3E B0 08 6C 0F F2 49 DF CD 7D 9F 47 5A FC
 2F A1 49 EC 67 70 67 03 92 2E 48 A2 95 78 63 61
 83 A7 78 B8 5F 43 B3 D0 39 DF B6 BB 29 AC 08 DD
 8A 33 3D F2 35 E5 12 49 6D 03 E2 95 7D BB A2 EB
 1C 2C 5A 66 48 68 84 52 98 FF A4 08 2F 5C 7B 90
 B2 D2 1E 93 D3 CA 95 0C DD 65 62 C2 BB C5 16 C6
 87 BF FD 27 86 81 B3 63 F5 F8 CC 21 41 6C 47 01
 35 51 25 29 7E 2C 1C AF 31 C4 EF 43 23 89 FB 53
 24 44 D1 6B E5 B6 06 EA EE 33 6D 37 81 25 2E E8
 B5 7E 73 19 17 19 3C 8D BC 7C 92 47 C1 32 8C A7
 A2 4B B6 DB 42 ED B9 D1 8F 2D 8B 07 F6 BC 7A E7
 0F 6B ED 3C 37 36 C7 10 D4 5F 32 CE D7 10 D1 B9
 0B DC FD D3 22 2E CC BA 75 0F 62 8C 0B 0F 49 10
 4D 44 FA 79 9D 96 97 37 06 F5 80 70 1C 65 BE 49
 89 BF A0 19 C1 AE 12 09 10 3A 0C 9E 73 D9 D5 DE
 C5 00 F4 2A 40 57 24 EB 59 F4 D8 71 86 D3 A4 75
 DB 29 71 6F 34 E9 9B 50 19 EB 71 BA E7 07 ED CA
 C0 0C D2 9F D4 49 F1 1B BF 9A 58 C2 67 7E B3 B9
 FE 52 94 50 DD 16 5A A0 8E 34 3A 5F 21 63 25 A4
 FD 1B 34 A2 93 09 2D 34 88 B0 E8 B2 36 1D 34 1A
 54 F8 BE 39 73 3B 3E 2A F7 93 97 81 DB 7D F9 DA
 E7 A7 1D 85 C5 DA D7 B4 3D 92 62 AD 3A 39 8E 23
 9D 7B B6 5B EF AE E9 C5 22 28 65 0E 07 43 20 CC
 1A 07 8D 61 EF 06 C3 1B 54 F4 FC E4 6B 2C 97 42
 B8 74 07 61 03 93 F1 BA 14 C1 46 2F 9E 1F 24 2B
 05 DE 51 F7 98 0A 01 B5 B8 F6 41 28 B4 54 91 DE
 10 D4 23 E8 20 95 39 FF BA 99 6E 7A 3B 6E ED 31
 CA 5A 2E AC 72 3B 1A 91 71 14 D9 81 50 AA 86 B5
 69 48 CC 17 F9 DB D0 7F 32 62 60 E4 0B DC D3 61
 A7 24 2D DC 96 E1 29 80 83 D3 97 F1 8C 99 15 BE
 14 83 85 65 61 F3 3A E5 4A B8 22 C7 63 D4 A0 02
 45 D6 E4 8D CC 54 47 AF FB 9E 73 1D C5 20 B8 48
 00 D5 2A 1D A6 45 FB BD 89 78 59 8B FC 4D 66 58
 9B 2C 69 D9 62 C9 57 60 96 BE 47 63 76 A5 B1 CD
 7B 22 27 BA C6 56 18 61 8E B3 69 D4 77 04 7B 8B
 6F 7C A6 92 EC A6 54 D4 78 0E B1 44 7C D0 C4 64
 4A 2C 64 CE C3 C1 DE 17 C5 F3 E9 A0 49 06 EA 07
 81 05 A4 CB D1 69 34 0D DE AF AC 31 5C AD C8 EA
 0E C7 14 54 14 79 8C BB D3 A3 0A 0B 51 59 61 D6
 21 E1 59 6E 17 B7 4D 25 A5 E8 B3 A5 46 00 F7 94
 FD BD 0C 89 7A B6 C2 D0 1B 55 87 EA 58 29 3F E7
 AC CA F7 49 6B D8 46 6E AC 17 E0 6D CA 6A E8 C5
 95 54 60 C8 EF A1 DA D9 62 59 92 14 C1 50 DA B2
 34 C0 85 FB DF BD D5 CF 6B 3B 63 7C A9 12 ED 38
 74 4C 19 89 5A 36 7C 39 1E 28 2F AC 23 51 1D 3E
 3C 3C 19 A1 2F C8 ED 63 34 46 C4 0D FE CA AF FB
 8B 7F BE 84 19 DD 90 09 AB 14 C7 73 21 3E 54 A5
 9D D5 5E D9 E7 B8 41 C9 31 CE 54 F1 4E 6E 0A 29
 16 4C 2C BB 0F 5C C6 13 7B DB 56 D1 79 AF 31 18
 70 3E 35 12 14 61 66 94 47 0D 98 0D 39 31 16 09
 89 86 5F E9 36 75 D7 4A 96 0C 2A A7 ED EE 6C 15
 37 67 2E 8A DB A4 4A FB 0A E4 09 C0 35 32 3A A0
 6F 80 E9 E9 FF 41 1C 9F 83 9C FB 2C 95 22 F5 42
 27 D1 10 AC CE B8 6E 31 0B 31 C8 48 E5 A0 51 12
 88 85 AA 75 C9 83 17 40 13 F7 61 0C 8F F7 77 B6
 67 DE 9B 32 DC 90 2E 21 DA 81 54 05 F8 57 62 58
 8E 10 26 F4 27 DE B8 68 5F A3 AE E7 F3 FD 7B 08
 F6 7A 81 16 90 0E 01 B7 C0 71 E4 C1 14 D9 DD 35
 D3 F7 00 22 C4 D0 1E 50 F7 57 8C D5 B9 4B DC 4C
 CB 36 DD 02 C8 6D 9A 59 53 76 C8 74 7E E8 61 BC
 F9 FB 9D A4 5F 88 3C F9 C0 BB 57 3F 86 AB 99 A8
 52 0C FA 59 39 AB D3 E5 0B 92 3D A1 AE AD F6 66
 B8 20 91 82 77 98 93 14 27 61 F9 D2 58 99 E1 5D
 4E E1 6B 0A 30 59 73 E6 D7 AD 43 C4 F3 9A 6D 15
 4A CB 63 12 C2 5F 0A 38 28 6A 6C 9C 9C 80 B9 53
 59 9D 0C 27 89 1A 24 B2 CA 99 92 CB 5D A3 F5 E3
 4C A2 A6 A4 8F 0B BC C3 24 8D 00 5E F4 86 56 6B
 3D 77 3B 22 3D 70 4C 7D E7 E5 53 EC E1 EE C5 DC
 B0 4B E0 3D 05 B9 45 4E CC F0 02 01 AA 9A 4F 05
 7B 4D 63 66 E5 FD CB 7E 1C 94 71 AA 4A 9C F1 A3
 89 16 35 3F F6 EE E4 1F B4 04 D4 94 29 55 FE 72
 76 3D 5C C1 53 48 46 CF F3 1F B2 56 EC 14 72 AD
 98 DB 96 E7 4A BA B7 30 D0 05 CA 7C 78 9C 9F F5
 32 ED 7B 9B 2F E6 81 94 00 25 51 5B B2 95 94 68
 F1 15 15 C1 66 6B 83 EA 5F 1C 4C 6E 93 45 16 38
 1F E1 21 E9 AF E8 DC 50 6E F5 69 89 3B 06 68 E2
 F6 22 F7 0B A9 7C 45 F9 11 9F 79 75 A9 AA 7F DD
 0A D9 C6 84 E2 9C 8A 19 B2 5E F8 90 F8 7F B3 28
 CE 59 89 97 A4 97 44 25 E0 D1 28 17 91 CF 68 11
 9E 10 49 4D D3 5A B3 FD CC 75 A8 94 4B 8C 7E 4C
 80 EE E7 29 E1 D2 91 FE BB D7 03 C5 D6 5E 77 6D
 96 B8 CE FE C6 D4 A8 27 C2 BD 83 1E DD 03 C0 6F
 FF 1F 85 8A BE 5A 02 7D A6 3E 8E 7E 91 16 0D 43
 46 88 7C 01 52 72 1B 53 27 F8 12 2A 7C BB 55 E7
 FF CA 97 59 F6 23 98 1F 57 18 D7 D8 19 A2 07 4F
 38 2D 93 E9 35 43 B2 96 D2 BF 48 91 30 DC A6 E3
 9B 1F BE 5C 55 28 92 42 F9 B6 C7 12 27 BC FD 68
 1A 9B E9 3D 83 4E 29 40 33 1F 2B F8 7C A3 A9 25
 14 DB 90 78 6F 79 09 E4 00 33 57 FE 33 40 D8 30
 5F 8F FE EA 76 04 AA 6C 86 3E D0 07 09 B2 B4 19
 E8 62 F8 54 A9 5B 91 9B C1 96 58 E3 C3 A8 F5 F1
 71 0D DB 0C A0 EB C7 50 8D 56 74 3D DC 62 DF 6E
 5F E7 EC BC 34 A4 E7 C3 A5 0B D4 4D 79 6F E3 1D
 51 4A D5 D6 00 9F 88 BB A4 A9 4E 30 50 BE F6 D6
 0F 15 9B 0B 45 3E 17 41 E2 C4 47 15 F7 54 8A 20
 65 32 9D 00 97 A0 9B 1B 6D 5B 87 D5 87 86 A2 48
 C1 48 85 85 F6 15 A3 C0 22 00 EE 7D 62 CE A5 2B
 AC 21 12 4C 2E F3 6B 8C 3E E1 C2 5E 66 78 A4 99
 C3 B7 B1 5F 3F 5D 76 62 3B 53 D2 C3 02 08 7C 77
 74 03 C7 0D 74 B9 8A D3 A6 40 42 E3 0A 8D 93 52
 ED 7B D9 F7 C3 9A B9 69 4B 3A 7F C9 E2 EE F6 1A
 0E 64 92 0A F3 6E 5C 34 05 76 D9 56 F6 FD B5 53
 A0 A4 C4 96 DA FA D0 C8 A6 20 18 4A DF 4F C3 21
 4F C8 C4 90 76 55 ED 45 A1 3D 92 D4 DD DA A3 ED
 24 90 89 03 15 65 7F BD A3 D3 50 9E 02 CB EB 00
 42 87 46 91 62 1F A6 33 B9 CE CE 3B F1 65 85 EE
 EC 99 33 29 4F A8 80 44 96 73 D5 C9 AE 1A 21 83
 DF 42 18 3B B0 EE C3 98 B6 0D E5 06 75 A4 C4 84
 B4 6F 33 61 E8 02 A0 74 9E 7D 0A F2 EF 10 CF 7B
 EC 8C 65 A4 C5 21 9C 86 0A 16 A0 65 9C 8B 9B 60
 C7 60 48 C1 C6 D4 3D 12 9C D3 46 BD 02 29 BF C4
 05 38 83 B8 29 9C 15 61 C7 88 22 90 D3 43 8A BC
 BF F3 9F 29 EF 31 8A 97 8A DC AC 7A 9E E3 CA 3A
 5E 08 CA 69 2A 46 89 86 C8 BF 07 7B 2E 3F ED 8C
 19 37 09 EC 6F 7C 94 41 DD C1 B2 14 69 F0 38 EB
 5E 50 D2 8C 12 BB F3 F9 8E 71 20 8B 6A 4D E6 ED
 44 58 87 CF 9A 7A 68 D0 E7 4E 5F F2 AD 48 D4 AA
 E9 D7 49 8C 70 12 17 21 3D BC F8 A3 5A 0A C2 36
 1F 46 CB 7C 96 56 91 B7 DB AC 0D 50 50 34 E1 1D
 9E 9D CB 17 86 65 3C 7A CF DE CD 8C 9E 48 1B B3
 C2 C7 05 65 52 E8 73 A8 75 B2 4D 94 6B 43 E3 68
 EE EE 0E CE 0E 30 19 F3 CB F4 58 B9 95 0E 1C 2E
 33 79 8E 7F 29 BC D8 38 EA A4 C7 76 4B B1 BB 81
 81 E8 21 AC C7 E8 EB 54 C8 90 80 83 10 54 DD B2
 EF BD 1B 1D 25 03 68 12 92 C1 FD 10 AF E2 EA D0
 24 13 94 AB 9A 4F B4 D0 01 67 78 CA AB D4 F5 D5
 DA D9 53 7A E7 09 09 2F 5C 27 44 3C 30 95 DD DB
 63 62 E8 A2 31 6D B2 7F 29 4E 5E 10 5B 9A 73 73
 51 D9 2F 64 5B 45 02 0D 43 73 CF AC 50 0E 3D FB
 7A 8C 2C E7 1B A8 A9 E4 52 08 21 85 09 62 BE 37
 21 78 ED B0 FB 89 7A 30 45 47 5B 88 E5 1D 51 78
 74 E4 A3 8C 6D F9 95 84 D6 E5 C9 C4 80 31 A9 0C
 00 9E 9C 8A BB 43 62 48 5C D6 3C 21 5A 0B F4 A5
 7F 70 87 E6 C7 C8 EC 42 80 AB 27 1F 43 80 EE DD
 2B 24 32 E7 B4 63 89 1C ED 21 20 1F F8 65 D2 3B
 47 EA 01 C1 45 67 EA F5 89 55 30 44 D8 29 81 47
 84 C1 DE 53 EB F5 D4 B7 57 4C DF B4 05 56 42 CF
 F8 A9 83 7A D4 16 62 BD EE 2B E1 78 CC C7 E8 57
 8D E0 F0 36 BF C4 85 3D 49 6F C1 1C E6 0C 7A 04
 45 7E 5E 60 D4 53 6A 02 AD 74 30 A0 42 3B B9 CA
 DF 7D 93 93 13 36 DB EC 5C 4E 9B 4F E4 AC E6 A8
 0C 91 BF 23 85 36 F6 21 D8 83 F2 A7 FF 18 C2 F2
 C2 D9 12 9D EA A8 EE 30 0F B0 18 16 01 27 7B 8B
 73 13 17 E3 11 68 F9 21 13 EC 71 92 04 8C 4D 4C
 B8 AE A3 55 29 75 19 A5 53 E6 20 81 81 EF 99 1C
 76 B3 E6 3D 59 08 2A 53 1C FD 9C C7 A4 89 66 BE
 02 EE 78 D3 3C E8 F3 1B 67 CF 26 76 A5 E9 B8 3D
 0B 86 C2 AF A7 6A 5C E6 2A E8 A9 E1 A5 18 CF DB
 E5 84 1E 32 5C 45 56 5A C7 8B EC EB D0 4C 65 83
 58 90 25 0A C7 6B 16 E4 12 3C 13 9C 15 CD 6C 1F
 A9 C4 A7 D7 B8 EF E9 54 11 BB 5B 65 50 FA 44 25
 E4 FE BE 52 99 3E 8A 47 7E C2 1C 28 2C 58 F0 BC
 7C 2E 3E 88 DC B9 AB 1F A6 50 FC CD B6 1D 71 04
 27 1C 00 29 87 48 A7 6B 9C 11 32 B6 A3 1A C4 A5
 80 0D EA 9B B1 16 B6 00 2D 5D E1 D1 FD 61 C8 D6
 54 D9 CE 79 39 8A 25 1F B7 10 DA A7 A6 4F D1 84
 96 56 A3 A3 71 0E 4C 8B 2B EA 87 F0 DC 91 A0 8B
 06 3A D7 7B E4 0F AD D7 8C B1 4E 90 B6 6A 99 F4
 30 AE 71 DC 00 66 79 3F 01 10 01 B2 00 36 BA 14
 B8 FE 87 0A 70 6C F2 1B 1B FB 1E 28 CA 79 29 9F
 DF 59 F3 23 6B 73 F3 3C 9B 9B CF 87 AF E0 F2 D3
 F1 CD 85 F1 79 BC AC 29 A9 AE BF 2B 69 1A 9E 98
 62 A6 D0 AF 66 97 39 4C C0 D9 E6 E0 41 6C BB 5E
 5B D5 69 12 2C 90 1C AE 2C 21 4C 41 16 FC 08 E5
 79 95 B5 4C 47 2C 16 55 F6 8E 18 C2 92 41 E5 DB
 AA 2D 71 35 8A CB 13 EA 29 0C 8A 9F 7B 54 C6 31
 0E C9 4A DB B0 E0 11 78 8F 55 E4 07 DA 2B 7F 24
 E9 AB 2A AB 17 FF 93 94 BF 4A D0 C5 F1 3F 43 8D
 65 DD 5B DB 7B 2D F9 C5 E2 93 72 20 3B BB 5A 35
 03 CB 97 CE 59 A7 AC ED C7 27 10 2B D7 EB 13 9A
 F9 FE 38 6C C2 1B A3 20 CD 93 1E C1 7B 8C 27 60
 AC D5 4B B0 91 6E 05 E7 8F CD 95 AA F4 01 7E 3B
 D5 C5 5B 3F 38 25 0D FB 8B 30 EA E6 89 36 00 E7
 7D 80 A0 E5 51 C4 2E 8D F5 1E 9E 7D 68 F9 F2 D0
 EA CE 4C 04 AE FE DF 35 02 BC F5 5E 98 E8 19 D4
 AB CA 42 7F 33 2E 4D 74 E0 F4 A6 9F CE A8 0E 5A
 AC D1 D5 32 9C F2 3C 89 FE D9 21 E1 96 97 92 58
 88 77 E9 03 FB ED AC 96 AF 64 06 73 C3 6E 23 31
 3E 96 E1 46 CC 5C 9F A5 21 6F 67 F8 F1 15 7F 06
 89 17 7F E8 4E 92 92 C9 26 98 E9 88 4C A8 5B 4C
 F5 48 0F 44 06 18 3A 2C C7 49 BD 09 80 19 6B AD
 CE 8F B0 B6 73 A4 40 A1 DD E1 73 A9 94 20 47 31
 3B 26 B3 5E AA 60 57 B0 AE B4 81 73 F7 05 02 70
 E2 2A 1C F3 76 10 48 F5 0E 72 C9 26 6C 68 F4 88
 A3 3E 17 2C C3 22 FB 51 A2 92 F7 F0 2F D2 A1 5C
 4A 0B 07 18 D6 51 C7 60 BC 3F CA 8B 90 A7 40 8E
 77 AA F4 8D 62 96 64 AF 5C 4A A8 8D BF D5 27 5E
 DC F9 31 97 2F 9B 1C F3 D5 FB BA BB 20 24 19 F2
 DF 66 C1 A9 0B CA 32 4E 47 1C 7E 3E AD C9 13 32
 EB 79 DC B7 F0 0C 16 F3 4E 0B F6 3C E1 36 C3 91
 5B C9 1B 05 31 4D E2 26 B9 BD 6E 5E 17 B2 84 73
 61 8A A4 45 69 C9 60 CF 16 AE 91 3E B9 D2 4D 99
 8E D9 49 C3 38 F3 43 4D 0A 58 88 C9 93 5C F4 AE
 A4 98 5E 05 B2 8A 09 F1 DB 7F 0C EC 69 D4 5C E4
 2B FD BB EB A1 2E EB 08 36 53 BF CC 2F B9 88 C6
 D0 2E 70 FB 54 CC 04 6D F5 62 40 7B 77 FC B2 6C
 0C 1B F5 02 4C E9 02 C0 D2 CD A3 31 9A A6 26 C4
 BF 82 FD AD 25 8B 8B 4A 82 EB 1B 79 0E BB 77 FA
 FA 7F A5 FE 9B 1B 43 25 C3 09 6A DD 47 FC 95 53
 DA 49 9A BB FD FA 30 92 BE 9C 6A 56 3A FE 1B 75
 0D E1 7A C9 D9 1D B1 28 64 C3 4E 96 23 42 30 68
 E9 EB E8 FE 99 69 04 54 76 74 05 69 3B 53 4D 64
 3D 3F 68 DF 02 14 3D F6 8C 07 AE CB E9 67 99 C9
 62 86 25 0B F6 81 F7 FC 49 90 FF D1 EC C7 AB EB
 12 B4 03 9A 7C 49 A6 A0 AC 16 92 05 93 96 3C 93
 B6 4E 51 96 D9 8A 7E D1 75 C9 3A 90 98 CC 1F 9D
 35 30 CB 1A 1D C7 A1 F5 15 0E 6B 29 84 66 16 5C
 56 C1 8B 7E FD 1A 3E 26 BB BB 95 E0 AF 1C A7 BA
 39 DD D1 87 DD 25 48 32 19 33 DD BC 84 47 3F B9
 D5 97 B5 38 BC 95 31 F9 51 A8 E5 F8 00 B6 28 82
 87 02 E8 BC 9D 7C A8 DC E4 AB 25 A5 E9 2A 35 33
 24 CC 72 91 43 29 6D D9 CE 3B D3 F4 27 01 CB A0
 DF 06 57 AC 22 05 E6 35 4F 32 0F 21 F3 FD AB 50
 58 59 85 85 20 4D E7 55 19 70 29 E2 60 64 68 6E
 A0 48 CA 18 9F 39 DA 63 1D 8C F8 4C 14 BB E2 6B
 D8 80 4C 68 FB F2 F0 81 7A D2 76 0B 0E 9A DC 99
 28 49 A6 6F DD 93 86 A8 9E 8A 25 FC 6E 7E D4 80
 53 EA 4D 6F D8 97 A5 43 4A E0 EA 1D 00 59 00 BD
 DF 79 6A 10 07 4B 15 39 64 E0 26 29 60 A9 DC 1A
 5B 75 BB 7A 99 21 B9 A8 82 B0 4B EB F0 93 7D F1
 D6 13 AA 54 00 BB FB 4C A2 52 B1 76 24 C2 F7 24
 3C 0E 40 4D 6C D9 57 00 4A A5 15 E6 B1 E5 69 BA
 CE 2E C0 56 CF 3F D4 45 86 9D 19 54 4D 52 46 7D
 90 29 62 04 13 01 6D 90 86 20 07 31 E4 FC 96 D2
 C8 A8 5F BB 21 46 97 21 44 EE 8B 87 0C C6 67 DA
 74 F7 42 FF 27 A2 12 95 3E A8 50 D8 FF 9E 9E 5F
 C7 A2 BA 8D 96 36 FC 07 E8 DB CB 4F CE 3E 7B 24
 3F 72 2B AB 02 37 A7 06 EA FD 4E 8A 05 3C 40 C8
 33 A8 32 BC 2D 62 DD DE 48 1A 52 71 1E 5F 0A 56
 6A 05 09 3C 92 ED 14 7A 6F 6C 73 C4 19 F3 F5 40
 63 EC 35 F1 81 F4 BE CB 58 00 B1 D0 AB 0C E7 C3
 77 41 86 23 04 6B 9C 49 69 FD 5E B5 72 07 8D A5
 90 C7 B4 AB DD 70 FA 20 97 7B 72 8F 41 D8 9E 93
 1B FF ED 3F 91 63 67 74 8E 46 60 88 41 B8 AC E5
 58 DD 04 B0 96 F4 E3 33 83 52 4A 83 F4 48 04 2E
 C3 CA 74 39 40 DB 78 6A B7 5E 71 BA 8F E0 E7 C8
 4B F9 31 F4 8C 1F 54 E6 E5 17 AF D2 B7 AE D1 F5
 B9 CB 1C A9 D4 4D A1 3A D6 02 50 D5 E9 A7 3F E9
 4C B3 70 26 9A A6 95 EB DC 80 78 80 62 37 21 AE
 EE 49 4A F6 6D AC 38 26 A1 6C 08 69 E0 B4 44 E9
 D8 47 F1 5D BB B1 7E 3B 03 77 B5 9F 1E B8 A0 B3
 5C C9 D3 86 50 9E 49 23 F7 0A 3E F4 EE 5D D4 65
 33 F4 35 F3 30 7A 4B A1 3B 6E CE 55 A1 FD 7C C4
 16 40 13 ED 6D 62 AE 9F C5 77 61 24 B9 03 A1 08
 AB C1 C7 34 2F 8F B9 BB 4C 60 7C 12 49 EF A8 A7
 FA F2 35 56 5A C7 1C 91 1A 8C B8 67 B8 C2 CC 89
 8B F4 A6 17 9F 38 FC F9 2E F5 F3 DD E5 DC D7 2F
 47 1B CE 39 5B B1 E6 20 4F D4 DF 06 B3 2D 15 8F
 49 61 BE C4 68 AD 3F BF 7D D3 C1 29 65 80 BF F0
 86 FE 17 2D CF CC 5E 6A 3A C5 96 8B A8 7F 7B D8
 83 D7 13 8A E7 9C 2C 5B 1A 56 BD ED F4 DD 0C 06
 24 A3 43 D6 9C 22 31 CA D8 F2 BA AF 76 9C 48 6C
 60 ED 29 AF 72 BE 7E D4 78 69 EC 87 15 0F F0 6A
 C9 93 11 C0 E1 1C 88 E8 9B 2E 2B BB 89 EF 20 A8
 6F F5 E5 A2 93 27 62 12 A3 EC 7D 0E C8 88 AD F6
 37 67 78 5B 46 AA 33 65 D0 04 F1 1D 8C BD 82 FA
 43 C9 65 E5 CA 08 DA C4 B2 C3 E6 0D 7A 21 BD 3C
 D1 B7 16 D8 E2 EE 30 72 E1 1D 29 5A 3E 66 25 0D
 45 F6 11 31 E0 B4 CD 1A 30 C9 87 21 81 3E FF C4
 49 36 EC 55 9D 10 6A 9B 90 8C 5D 4F 64 EA 54 84
 FB 42 25 15 0A 52 52 0E 98 B9 93 D2 66 C9 87 56
 F1 FC CC 8F 26 23 AA 15 4F 88 FA 1F 8F 41 24 35
 37 16 8B DC 26 D7 BC 48 2D 85 B2 FF 32 2D 0A EC
 16 1C C7 FA 16 E1 33 8A 41 30 35 7F C2 D2 25 AA
 98 39 8E 98 A4 A2 22 8C 83 27 76 A1 62 26 B7 2E
 0C AD 5D 4F 51 9B D1 E5 F2 2C A6 23 58 68 56 56
 48 54 E4 0C 66 4E 8E 45 22 C9 19 91 7C 6B B9 30
 78 E9 FF EA B2 FF 2D 40 A9 80 9D E2 D7 0D 60 FE
 23 B8 0B 77 BF AA 78 73 00 B1 B2 37 FF B2 E8 9F
 4C E6 D5 E7 8A 57 23 C8 D3 49 BA 89 57 A1 5C BB
 C7 1F 33 9B C5 A3 F2 86 7C 2B 8B E8 F9 60 20 9D
 31 83 50 22 E0 6C FD AF 07 7A 03 FB 32 89 29 1E
 2F 4F 99 C0 1A 09 94 2D AB 57 69 AC C9 E8 BF 87
 C0 EF 36 FF B6 BD FE 99 88 56 FA F4 50 D1 18 97
 AD 31 40 46 FA 21 07 40 6C 2C 3E FD 62 B4 CA 1F
 CC 18 44 80 B0 E5 BC 80 08 0E A9 09 6B D9 17 4F
 96 2B FA 90 FE 92 5A 60 B4 C3 30 D1 3C 09 83 1E
 6B 77 E8 13 72 73 57 C3 B8 C1 AB 8B 8F 91 60 E3
 0F B8 0E 28 98 FE 90 13 CB A3 EE 8D 92 21 14 C3
 F8 43 F0 1C 8C 5A 88 65 31 4F 93 AE EE 75 7C 56
 75 34 F6 1C A3 C9 FF DD 89 9E 99 31 EA 7C 3B 9D
 D1 82 E7 1D A4 69 0D 72 8D EE F3 2C 4D CC 54 A1
 10 CE 15 56 D1 3D AE 4D 7C 0E 38 8E 44 0A A6 93
 34 61 87 83 EB 57 90 08 A8 F0 59 59 63 E5 4E A6
 D9 9D 69 37 46 F2 6B 09 B7 A7 44 31 EA B0 43 C2
 5F FA E6 28 2F 54 DB 03 7F CB 8C FF 13 99 73 06
 AA 21 80 4E FB FA 10 AB AD 16 1E EC C3 8E 3C E4
 F7 99 CB 06 10 6D 98 FC 46 2A FD 9C 26 8F 63 3F
 EA B7 CB 0A D6 2E 1D 71 1A D6 E2 5B 28 A5 0E DE
 26 BD 47 4A 06 BF BE 37 E5 1D 69 00 54 7D 10 26
 3F EE 2C 27 72 EC 81 97 03 60 29 7A 41 65 73 03
 F0 CA 3E A1 64 41 EC 32 7F 60 48 46 BA DA F1 BE
 F9 42 3F 5B B1 CF 35 8D 8A CF 1E CD 4F 69 8F 49
 DF AF AA 5D 67 74 05 13 06 A3 34 42 AF 46 7D 7D
 C6 5B BE 12 C3 E9 26 59 4D B6 A7 B6 09 C4 4A D5
 95 F6 CB 38 42 89 37 E1 AD 56 16 92 97 F4 D4 B9
 3B 7C 32 62 09 55 89 49 24 3C C4 DF BA 86 1E C8
 EA BB B0 C5 B3 AC FB 04 7B 66 56 11 EA 5E 55 A7
 3A 32 50 D3 DA 7B D3 B4 41 AD 23 D0 33 AF 24 CD
 30 FA 32 FC BB 26 ED C6 31 D3 31 0A 8B 35 AF 61
 B3 CA 9F 37 D7 10 1D 98 59 F2 54 FF 70 74 F9 30
 A6 F9 DA D9 1F 18 C8 5F 9E 41 E3 21 7D 11 9F 00
 22 06 6E FB 53 D1 99 D1 C5 8A CE E1 6D 66 CB 32
 A4 5D 96 F2 86 0D B9 D0 24 6A DF 0B E0 9B 7D 92
 4F 86 C4 FA 53 34 73 91 32 96 E3 C4 F8 94 58 78
 94 C7 EC D8 FD C4 58 EA 76 79 77 5D A2 A8 87 D5
 9A C4 70 C5 3F B4 51 04 1F 1D 55 47 40 26 9B F1
 24 D9 FD 4B E4 5B 73 B5 5A B4 7E 02 EC C7 1C BD
 95 0D AF 9B C1 E1 96 B2 CB 42 54 2E F4 A2 C5 73
 52 3E B9 CB 9D 5F 03 4F CC D2 08 BB 8C 17 0A 12
 72 15 39 49 7D C6 18 E9 67 99 91 A3 D7 62 B9 57
 4F E9 2D BC 62 ED F4 94 33 EB 94 BC 88 C1 72 59
 5A 7A 6B A1 A3 35 83 E8 F3 8A B7 E9 E0 89 98 94
 A3 32 E3 EB 43 62 2B 0A 62 A3 91 C1 F8 02 57 0A
 6F 5B 6A 7D 74 F6 F7 F0 48 27 BC 2E FF C1 37 0C
 43 76 1D 22 50 9C 35 7B DF B2 6D 31 59 C0 73 B3
 5C B9 2E 1C 3C 68 4C A7 39 4F 5A ED 38 7D 0E 07
 F4 EA BD 4A C3 91 C0 A7 6D 11 55 BE 2E 36 A2 EE
 8C 32 74 12 9A 65 94 FC EE B1 DA 99 67 A7 DA E9
 8F 65 E1 2A FA 6A 06 B8 D9 C4 4E 01 DB 04 19 69
 78 FC 73 2C 6F 0C A9 36 68 8B A3 BD 27 89 B2 70
 2C 3E F7 E5 94 2A 09 6E 11 DA 07 97 76 9E 6A 1C
 D5 E7 21 36 22 E4 5C 05 01 B0 4C 77 B1 92 31 85
 C0 A8 60 8D 98 78 28 14 A1 07 AE DE AE 2C 43 36
 4A 51 B7 4C 6D D9 14 2F 6A C8 ED B1 D3 41 1F 27
 4C 5D BD 07 C3 B1 E5 DF C8 52 9F C9 45 B4 6F ED
 BD C1 85 6C 04 61 E9 8F CC 5E 74 43 14 64 15 30
 95 5C B0 AB 4E 68 EC 00 3B 2E 77 30 AD 39 2D 8B
 98 FC EC AC 96 25 AC 04 94 6C 31 D5 B2 3B D0 9E
 B9 DB 52 C3 B5 B3 84 9D BF DB 5E 92 0E 84 B3 C2
 98 E5 EE 2A BF 27 13 F4 25 97 84 C7 05 64 8F 90
 03 36 EB 13 F5 C0 55 18 3B 4E 18 DA AB 56 1C E9
 96 7D A9 10 A9 E3 18 83 59 81 23 13 D4 9A 85 38
 52 3B 4E 52 AF 4F 85 50 88 49 32 A7 0C F3 B7 18
 16 E6 AA F6 24 74 06 86 1C 67 D9 10 1F 92 85 C1
 F7 02 60 F2 B3 E1 9C BE D0 69 4C 2D 21 16 E3 A5
 81 F1 78 15 B3 40 52 2F 19 86 92 4F DA FC 42 B2
 98 AE 00 F1 84 01 57 A3 57 43 0C 95 96 D5 2C DC
 4F 87 8F 7B B3 92 9A AE 47 18 1C E7 91 31 C8 7E
 52 46 1C D8 08 17 0F F1 4E 91 E3 D1 DF E0 31 7D
 5F 05 B2 C1 73 9B 7E B3 61 CB 6A 75 2E 2B 7E D7
 02 AB 4F E5 92 9E 5A E3 01 36 EC DB 96 B3 B2 74
 C1 ED 4C C2 C5 4F D6 A2 01 D3 B9 99 71 FC 53 88
 4F 37 EF EB 78 2E CF 7E 41 9F F1 08 F0 23 AB FF
 A7 2F 54 1E 3B 0A 84 7A 81 DC E6 CD 0E EC 46 41
 7D ED 9E DA 15 50 58 31 B3 7A 7B 0E C7 38 F6 88
 AC 5C 55 2C 03 42 F9 5B 99 B9 B0 E8 65 C6 16 D0
 7C FE B9 C2 42 1D 3A CD 19 FA D7 6E 7C AA 01 01
 F5 1A B0 76 FB D1 C1 AF 70 FC 4D AC 06 5C D9 F8
 6A 13 88 39 DE D2 BB 50 87 DA C1 CF 09 72 83 59
 E3 28 4D 6C D0 F8 81 5A 0A 27 E7 05 DB 14 CF 5E
 B0 35 E4 81 6A 30 DB 35 18 F3 41 5E AD CE CA 7D
 95 93 20 14 63 96 00 E1 11 2C A9 DB 84 AB 67 82
 4C 47 D4 1C 35 D3 47 D7 99 F2 4F 60 37 1B 3D 86
 2F 99 DB 6A 2B 9F 0C F1 3C FA 91 EB 7A 57 F6 32
 5D D3 5E 19 78 81 07 95 35 6E AB 01 0C 6B 76 CA
 80 BD 07 EB 1F DE 9F 4E 0B 95 46 AD A6 76 20 88
 28 F9 25 94 C7 99 48 F9 F7 34 68 14 28 75 EE D6
 91 5E 07 87 FC DB 95 BE 57 5F F9 71 73 37 8F 85
 3E 0F 89 2E 17 D5 44 76 11 5A 81 2C 9B C2 42 24
 54 37 F2 85 30 99 3E 59 17 38 A9 DF 0F 38 52 A7
 05 F5 66 C6 9E C3 EE 52 3E 1A 33 6D 48 3C 6D DE
 9B E2 31 BA CA B9 CC AE 6E 6D 42 22 63 98 C7 2B
 4C 25 C8 C1 1F 55 DD 92 74 C1 A0 B2 A3 5C BD 93
 20 FD 5B EC 04 F5 10 A3 7C 0C E4 4E C4 40 A6 0D
 DE 5B B0 15 13 8A 0E AE 7C 18 E0 64 7F 50 A8 35
 76 02 BD EA 33 93 A1 D7 C2 89 C8 65 CF F1 FE 0D
 D5 F6 74 D4 15 E4 A7 C8 6D 8E 37 9A 1B 08 12 13
 66 89 3B C3 36 F1 39 E5 11 38 EA B6 30 B0 D6 00
 E5 6C 4C DE A7 31 31 4A 5A AD 66 80 6E E4 82 43
 1D DD FA B3 A5 54 A5 78 8B 56 14 A2 39 0A 10 F9
 CE 2E BB A6 13 5C E8 C0 FC A7 9C EB 14 CA 26 A4
 EB 61 20 AA AA 95 D3 39 99 B4 6F 1A 12 02 BD 91
 42 E1 E1 D9 94 9B 3B 61 BC 04 AC 24 52 10 B8 4D
 54 75 9A CC 61 2C 52 18 4C 5F 68 A0 DD 5E D5 A8
 F4 E9 B7 3B 54 15 11 C5 DE 6B B0 36 97 FD BF 2D
 C1 DD 3F C7 78 E3 09 FA 90 3B 74 38 80 D6 9F FD
 A6 2E 69 70 5A C9 FC 8E 7F 15 A7 D0 7B DE 27 76
 E5 AB 94 DB 16 5A 9A E2 D9 5C B0 D2 A3 DC E6 FE
 F5 6C 93 21 71 66 03 8A A6 97 17 2E 23 28 B4 8B
 11 38 3C BE 0E 09 F8 1B A8 14 3E D9 70 D3 3E F2
 A2 B8 C5 E5 8D C2 E9 42 D4 6E 45 A5 1A CF CB 62
 3D 3F 5C C9 16 E8 BF 47 11 09 75 30 7E 20 F6 02
 7D 60 D0 19 2A 0C CE 80 6E 76 9D 27 1D 80 F5 6B
 F0 26 F3 6D BC 8D 48 84 FB 5A F9 85 11 55 25 77
 40 F4 20 98 7D 00 D2 90 17 8C 2A A2 66 A8 BA D3
 59 67 B6 D6 5B 61 AA 84 2C 3C 1C 44 36 5B 3F 2C
 7F 33 85 1F C4 47 8B C1 3B 8E ED 9E BB 07 09 39
 66 AF CC 37 7B B4 37 BB A5 E2 21 0B 60 83 B2 BE
 00 48 43 62 5F 19 97 51 37 61 F9 DE 45 68 C9 03
 71 CC 27 41 FA 31 01 79 EC F9 F4 ED 76 74 DC 9A
 5B B3 75 75 2B 17 4B 6F 19 C3 86 EE 69 67 E0 66
 9D 9E 17 03 87 78 E5 D5 4F 28 F0 A1 75 06 14 49
 C2 24 2B FC FC 82 6D 4C 49 D1 E0 FD D3 00 7D 89
 D2 CE D0 A0 10 DB 8C 21 44 AD 1B E9 4D 8D 62 DE
 AF C5 35 D4 C6 7E 44 2F 61 91 D2 EA C2 E1 51 09
 E1 EC 7C 4B 73 E1 70 01 15 6A 37 BC 83 0F 17 B9
 14 38 E2 BF 31 02 BC A8 8F 8B 5A F0 E9 59 E2 17
 99 D2 A2 73 93 A8 AD 3C 0D E3 33 75 08 E3 70 75
 79 85 CD 7B 65 E3 36 0B AF 6F 3D 2C F0 66 57 4D
 23 FE 59 51 BA 14 71 06 8B 95 3E 41 4A 2C CA 62
 CA FC 7F 66 B6 33 D7 E6 8E C2 7D 7C 1E 82 55 3F
 97 00 42 F6 47 BC 60 96 E1 D1 E0 AC 31 CB F1 4F
 D5 8F 77 82 0D 6B 60 E0 A0 4A 16 C3 AA 15 88 15
 E2 E8 75 4B C2 C7 04 36 28 13 1E 0E E6 22 68 7C
 87 1F B5 F8 14 2D 0E E5 30 45 E7 F8 0D FB 94 DC
 C0 BF 56 C9 B3 2F E8 D2 41 EC 35 08 38 19 31 DB
 0E 28 56 0B D3 1C 85 C9 F7 71 C5 6C C4 27 D0 FA
 FA BE 44 F8 5B D9 99 66 08 38 50 E8 1F 9A 83 3E
 9F DC 5C 67 01 70 E9 BA 5E 3D 97 65 77 8B D3 B0
 74 9E 79 5F D9 E8 9D 95 10 52 46 C1 2B 57 75 05
 01 39 7A FF 23 0F DD 9B 1C D0 2B 7D 61 16 E2 DD
 B8 71 02 CA E4 41 9E 3B 67 98 CE D8 AF 0F 71 DB
 6D 4D E7 EF 6A 5D 42 91 B4 B5 DD 74 53 4A 56 6C
 F5 2E 88 94 24 54 D3 0C B5 9E 84 9A 88 AF 61 8E
 AB EF CA C2 27 8C 23 42 90 48 D7 09 94 2C 04 24
 CC 57 7E AB D9 FA 69 FC 29 65 F1 05 32 7A 9B 6C
 E8 B4 0B 23 A7 0C BD D4 C8 26 1D 3A 02 40 84 9F
 91 42 02 95 5F EA 0D 5F 57 E4 24 45 2B 7F BF F0
 41 1B 23 5E A5 79 06 9B 5A D6 B5 57 7B E8 B2 21
 FB AC 55 6A B0 50 25 F7 63 A6 69 60 4C FB 05 00
 2B 2A 15 5E F3 CF C2 5F A3 AE 8C A6 79 0F 2F 09
 41 44 1C 00 E3 56 48 D5 19 45 96 71 A4 2C 81 67
 D5 56 5D 9D 8C 99 D2 53 C9 B8 1E 77 B9 17 2E 78
 F4 6F 9F A1 DA EF 10 42 6F 82 C1 FD 1A 54 59 D4
 8C CB BC BA 61 DF CB 7D 9A 94 AC AD 4B E2 69 D1
 39 C6 7B 20 35 09 82 16 56 92 85 D4 D2 C3 25 59
 D1 9B 07 56 71 B1 CA DE 18 DE 15 C7 73 20 E6 31
 34 32 41 2D 10 4A AC A4 47 84 62 D5 76 91 15 10
 78 54 95 55 42 7C 7E B2 BF D1 F4 64 1A 11 E9 E8
 6F 48 CC F9 C0 99 AC 3B 9E 9E BE A3 1E 1C 95 09
 F3 E5 19 1B E7 B8 93 25 8B A1 C1 82 67 3B F7 B7
 67 CE 5D BA 62 6F DC FA 0C C6 3E 7F 9F A9 C7 C9
 1A 50 E1 81 E6 7B FE 26 BF A8 69 92 05 1A 31 2C
 02 62 82 D7 93 29 10 2B 76 7D 21 50 BA 48 F2 46
 BB 3D 4E 93 F3 9D 88 8A DB AC 32 97 30 56 2E 94
 42 4B 40 71 C6 D9 F9 C8 A1 98 51 30 54 77 4F E4
 AF C5 9D 0E 4E 6D A1 09 CD 1B BD 04 CE E4 4C 81
 01 59 7E 09 63 DE 3F 6C C4 09 43 2D 0D 1D 32 10
 DE 17 A2 B8 49 81 07 4D 04 F6 C0 DE D8 B3 46 84
 00 C0 15 99 60 2F BE 5A B0 B6 0A F3 1C 82 DE 54
 90 3D AB 06 A5 5F 95 FE 1F 07 4E CA 1A E3 49 EA
 06 E2 8F C7 8F 28 5F D9 83 BA BA 78 41 CD ED 50
 D2 7D 3E BD 2A 60 B4 C5 D4 39 11 E7 6B 11 8A BC
 83 14 02 9E 65 B4 11 19 6D E2 FD 5F 0B 74 21 CD
 D4 96 65 50 AF 05 15 A6 6E FF 8D BA 5E 3A C5 C2
 B6 E7 60 DD 38 87 6E A3 46 32 61 79 E4 3D 00 42
 B4 F6 29 46 D2 E2 D3 47 74 D2 85 5D AE CF F8 D7
 24 FC 51 1F 98 5A 49 41 02 0F 6A D7 40 3F FE 62
 BF 69 CB 16 DC 2F FB E1 27 56 14 3F 07 EE 81 D7
 4F 7C 46 6B DE 19 DF 40 38 69 EC 8E 0E FE BD 63
 4D 28 5D A4 A0 24 C4 9F 95 5C E8 FD 85 B7 DE 9A
 88 24 D8 A3 EC FE 7A BB 13 66 55 67 09 66 25 02
 F7 68 B6 58 02 76 97 EC 60 6B D8 39 54 9C 21 A1
 97 AE E7 DC 53 58 6E BD 9A 48 F3 34 AD 2E 3C 89
 73 74 AF C5 DC 04 EC 51 2E 5C 66 EC 7E 13 E3 6A
 43 2C BA 5E 1B E2 94 4B BB 9C 1C 7B 07 22 87 FB
 18 E1 2B B2 80 8E AE 90 94 8E 44 C1 29 C9 03 F8
 60 61 A9 E0 1F 8D 58 F5 5D 8D E6 01 8A 82 17 7F
 5E 71 AA 7E 16 E8 34 98 21 14 89 54 B4 82 77 F2
 99 33 BD 64 49 E6 AF A4 38 75 C6 6E FF 8D AD 7A
 2D 4C F0 45 7B 9F 29 01 F4 F4 C7 EA 0A 5F A3 49
 67 9F C3 F6 8F 8B 17 30 60 31 82 DA 98 27 E3 8C
 C6 87 12 A5 DB 50 DF EE 91 ED 64 FD 89 BC AC BC
 03 36 83 A2 CD 82 B8 E5 31 3D AC F5 34 41 28 F1
 01 41 66 F7 9F 39 11 C1 1D 8F D5 BF BF 15 01 A7
 4E CD C8 69 6A 5A 92 47 85 4F 39 F8 EF 2A 0E C0
 55 9F 6B 58 6B DD 9C 80 20 DF 48 84 F9 8E 71 73
 DA C9 7D 1A 30 C8 C4 EE 0E 0A 47 C2 E3 57 ED 70
 5C 1D B4 32 9E 4D 7C FD 8E 41 3E CE AD 7B 00 91
 E2 8F 8E 44 E1 4C DC F2 12 D4 45 F1 9F 25 AF CF
 50 6C 95 4F 0F BE 54 E2 F1 0B 88 B5 A6 D8 6B E7
 21 24 39 F2 4A 96 CA E2 44 05 9C 64 97 FE 22 E7
 D4 49 5B A9 FA 0A 23 F3 F4 CE 02 DC BB B5 F5 F6
 96 95 65 9B D7 86 B9 3E AC CD 7A D2 44 EF 2F 36
 74 3B 63 C7 DB 2E 25 5B 0C 0A CB 61 2B 70 B5 A5
 16 24 89 10 40 F3 01 8B E2 44 B3 C3 E4 8F 97 AA
 33 89 82 77 45 CA D4 36 F0 B9 24 EA F7 2F 7D DF
 15 07 89 BD 6E EA E5 90 01 4C B6 BF 36 7B 42 B2
 1B FD 74 58 21 78 B8 F6 BE 67 F6 69 A7 E7 FD 8A
 E1 A4 82 A5 2E 44 D6 41 A7 B7 F0 7E 8E 29 D7 36
 74 D5 A1 C8 CF 89 00 9B 80 65 7C FA B0 4E F1 A9
 3B 6A 8B EC CB 8D 9D D5 C9 7F D6 01 54 F7 CA 09
 20 CA 30 1E EF 01 AE 98 49 88 13 DD 81 A7 7C 81
 56 80 5C 3F EF 37 EF 11 98 08 A8 40 B6 96 86 19
 67 78 56 2D F7 4E 02 73 59 C6 36 79 2E A6 04 A1
 13 37 C1 10 DD 8C 80 04 88 87 AD FC D0 08 A6 F5
 66 17 27 80 1A 9A 98 DC D8 AF B6 16 78 D0 D7 75
 02 B1 99 CA 76 DB 71 38 7E E2 3C 9D 47 31 53 E0
 DB 0D 73 54 23 D1 40 1E 55 29 73 D3 25 75 F2 A9
 72 FE 65 4B 3C 02 D3 77 9E 9A C9 1D F0 74 23 59
 2F DC FE F7 5D B7 A0 9D 69 83 9D DF 54 3E 27 1C
 44 92 48 E6 6D 3B 64 53 61 BF 62 7C 3C 2C 11 CA
 F6 FF 17 3A A3 A6 54 B0 58 FA B9 F5 2A C3 29 FC
 0A 13 F5 A6 19 46 00 AC C8 C4 D2 6E 91 0C 27 C6
 F9 B7 F8 D8 67 8C 8A 28 C9 1D 5D DD 4D 12 94 67
 0B E0 98 4F 5A 7C DB 12 2E 80 0F 1B F9 31 89 59
 1A 64 62 4D 6C 5A 57 FC E6 32 4C C8 E7 A4 65 C1
 83 66 88 29 4D 4A 7E 31 10 FB 6D DA DC 55 C2 C9
 01 0C 31 2E C8 9F 60 34 60 39 36 E9 D1 07 B9 A0
 C8 15 F1 69 D5 6F 5A 00 B8 BC 3F 8B 22 45 B9 98
 A6 E3 4B 7E EE 94 C9 11 C9 96 B2 79 1A FB E0 EC
 17 C5 96 C4 50 81 4C 5D DB 5E 3E D0 F6 63 F2 5C
 F0 00 2D 6C 8D AC 2D 95 2C 35 FF 61 F4 3B 10 55
 0A 8F 3B 96 5B 6A B2 E8 24 C0 E7 6B B9 6A 24 69
 BF 16 47 BA C1 66 14 91 6D 86 9E 57 3E EF E2 84
 77 B1 82 33 E4 50 4B 63 77 67 89 FC CA 22 DD 1C
 D2 FF CF 17 CA DB 6E 0C 16 A4 72 BF BD DF 1C DE
 8D 31 6F 3F 3E 54 D0 A4 81 62 14 73 54 AE BE C4
 5E 50 11 14 E1 C4 D9 23 E6 76 20 E0 D3 57 74 C7
 5B 79 3C 5D C5 99 DA 51 C3 96 C7 3E 24 08 E1 D7
 81 4D 95 88 50 F6 B1 1F 88 E0 71 E8 D0 D1 3C 82
 16 02 2D 21 DC B9 1D 82 3E 6E 19 43 41 29 20 6F
 34 52 E2 88 C0 36 76 3B 9E C2 46 14 E3 EB 2B 68
 63 F5 48 0E 26 B6 D9 EC D3 F6 D4 9C 13 0A 99 E2
 29 E7 8A 13 0D 6D 2F DF 65 3C 2C 7E 18 61 BF E5
 7F FF D8 B7 B2 AC 47 A4 13 7F FB 96 C9 BA F9 F6
 B6 C7 BF BA EA 64 85 2F 67 8B 91 B8 A7 80 2D 57
 F7 4D 88 00 34 8A 64 5E D5 EB EB 72 40 89 52 01
 DA F9 00 4D E5 5D A3 20 ED 17 86 37 AE 5D 74 47
 D6 43 C3 35 FD E3 AA 76 05 17 CC 05 1A F0 06 EB
 25 46 60 88 D8 84 1D F9 FC DC 5F 20 12 9E C5 0F
 7C 6A 5D 27 6C 3F 35 B6 A9 B7 30 88 E8 78 D0 7A
 BE AF 73 A1 55 0A D2 4B 16 6C 3C C9 3E A2 54 DD
 A7 2A 7B F6 F1 9B 45 A9 FB 72 2B 97 90 AD 09 D9
 03 FC D4 44 30 01 0B CA 2E 2E 37 C7 CF FF A7 23
 D7 C2 BB 91 11 45 42 20 9F F1 32 37 4F 43 03 81
 16 3B 1A 76 0E F0 6E 58 D7 13 9D 7B 4B A8 97 18
 7E 36 62 80 7D 8B 95 D4 03 1A 95 D9 A0 CC D6 85
 D4 0F 8E 33 BF 33 EE 15 D2 FE 91 24 86 7F 5D 09
 C5 EE 82 5F 2B AD 8B F8 2A 6C B6 BE D8 FF 33 90
 32 1D 2D 3A 65 C0 6F 07 AA 9E DA 00 AC D9 8D 75
 9F E6 FA 44 58 3C CF F5 ED FD 59 35 25 43 2A A1
 B9 1C F2 82 06 91 6F 33 8C 53 07 B8 F3 FF 39 3B
 01 C3 54 74 50 25 79 04 B2 72 2C C6 06 F4 CC 48
 13 A6 4F 84 33 71 64 2D C7 58 0D A2 1D 25 B4 EA
 9B 79 5B B5 C7 3F B1 E1 CD 6A 97 6A B3 2A B9 EE
 89 16 D7 F2 89 B4 FA D4 16 65 E7 27 50 AD E9 4A
 0A 35 79 14 0D 24 AB D7 7A DF 93 36 6F 2C B0 D5
 76 30 77 92 3F 05 B4 33 74 98 D4 C8 72 A5 1C B7
 19 80 7B D8 DB D9 E2 93 C1 12 6C B0 D8 0D 12 08
 69 B9 8D 02 40 E9 B6 95 F4 45 41 66 0E B7 95 53
 C5 3F 84 86 3A 9F B3 C7 F7 9C D4 3D E2 99 96 73
 FC A4 86 48 28 D3 DC E8 CD 19 4E C8 6E 55 A2 AD
 36 6C 1F 5A 11 9C 6C EB 57 F4 B8 EC FB 1D B0 C2
 94 7D 59 1F 90 98 1F 63
* End 1038653483 580176279