* LTspice Encrypted File
* 
* This encrypted file has been supplied by a 3rd
* party vendor that does not wish to publicize
* the technology used to implement this library.
* 
* Permission is granted to use this file for
* simulations but not to reverse engineer its
* contents.
* 
* Begin:
 CE 88 15 55 D0 E5 12 7D D1 58 5F B7 2A BB 8F C8
 2E 7C E5 4B B2 D6 10 0A FA B9 91 2D 6A DC 48 3B
 43 0D A3 AE 74 6A 02 1D 32 49 4C 2C A7 FA 5D E1
 CE 3C D9 47 A3 04 F3 26 19 26 9A 70 57 EB BE EB
 DD 66 EB 98 CA F4 40 5F 62 04 38 12 B7 A8 E1 11
 1C EE 62 B5 96 9D 28 F5 2E DB 72 C5 7E AB 83 C0
 A6 05 AF 6E A0 6E D4 6F 81 58 60 9E 44 97 A3 2E
 04 5C C1 85 1E 78 31 B6 2F 9A 79 15 23 AB 62 62
 9F 19 87 2E E7 C1 51 49 31 ED 62 4E 7C 03 76 87
 66 E7 6D 12 E6 43 F1 4E E2 62 CB CB DA 7E 87 24
 7F FB 99 1A 30 16 2A F5 B0 9C 9D A9 DB C8 E0 FB
 B8 6C 82 9E FA BE 74 A5 37 27 9F AD 9D 4A 27 CE
 77 CC 0C E1 30 DF 55 41 89 4B 02 57 64 CE 89 01
 18 62 08 FF 56 77 BD AA 6C 81 98 24 39 2D 06 37
 82 55 88 50 B4 2D F1 B6 E6 24 F9 49 17 80 27 F7
 E2 94 E0 53 E4 FF FF F2 48 96 76 10 D5 AC 49 B4
 D0 06 83 A3 06 2B 01 93 F1 A0 29 79 FC 1C D8 AF
 65 50 D7 3F 5F 65 64 73 D3 CD 02 C1 2D C9 79 8C
 CB 53 1E 0C 2A AA 71 48 43 CA D4 43 97 C3 57 C0
 0F 81 CF 05 08 E7 18 35 94 6E 85 95 C0 11 08 02
 86 9E DE 35 2A FD 3A 38 74 11 73 9E D2 66 74 C3
 B0 34 DE ED 80 0F 0A 13 00 FA 64 06 9C FE 01 8F
 8E 80 51 42 AF 5B C2 13 48 8E BC 1E F0 7B 3E 1F
 54 AF AE BE A1 D3 D9 53 8E 95 F1 85 86 E0 21 3D
 C5 8F 2B F8 80 14 82 9C FF 72 F1 0D F8 01 6A 5A
 6E 86 90 C6 0F F0 D7 5B 1D 88 68 F5 F4 4F A7 B7
 D6 EA 4C 45 CE 71 C0 E5 37 FF 4D DE 8E CD 09 3B
 D4 39 C2 5E 9C D7 52 14 77 04 CA 8D 14 97 CF AD
 D0 2E 42 2D DF A4 E2 23 E0 D2 AA 7A DD 51 FA 13
 0C 30 18 0E 79 36 8C 81 08 0B E0 DE 9E B1 91 FB
 07 36 61 FB 5B AD 5E 2A 64 E5 C0 15 CA E8 25 40
 3B 15 BE F5 E8 F2 2C 38 7C F9 CE 77 5A 33 AB 2D
 1E C1 47 1B DA 55 34 96 7F 17 AA 0D 2F 21 22 33
 9D 66 58 94 5E DF D5 9D B1 EE EB F9 1E 46 7B B3
 07 26 67 26 92 38 4A 11 B5 38 A1 85 9F 32 C1 C7
 8E 78 49 EC 1C 66 7C E1 4A BF 74 88 A4 4C BB 71
 37 07 24 07 90 DB 40 93 00 93 F0 51 F2 89 B8 A7
 AF B5 E2 12 E0 F7 80 C6 26 D5 A8 A3 8B 6B D7 90
 51 C3 0B 99 53 BA 45 63 2E 76 BF B8 CA B8 4E 6E
 EB B8 CF 54 2E 22 E1 28 82 1D 0F FD AA 1F 0F C4
 9F 7B 4E 5A 80 AF 82 45 81 01 D3 96 15 E9 34 B8
 90 E9 6A 04 DD 69 88 7D 55 66 C7 79 29 41 98 53
 36 E6 03 6E 0D 51 4D 12 1A 1A 80 2F CB 50 77 99
 E1 4D 1C 96 2C A0 32 8E EA EE 37 7A CF 15 18 5D
 1F 34 AF 7F 35 5F 06 FA 2D D2 39 1B BA 3F FE 7A
 2C 84 39 12 C5 E9 33 6E 84 5F 7A E7 64 74 CD E0
 2D 21 32 2B B2 45 7F 0F 16 5B 1A C8 B2 B9 7D 12
 60 F9 26 2D AD F5 E6 46 E8 AC 5F E2 2F B7 12 CC
 8F 41 A3 3A CB 74 38 DC AD D5 54 6F EC E0 CA F5
 AB 66 FE 36 06 76 1B 3A 67 8E A4 0F E0 95 E8 85
 E5 63 DA FB CA F1 74 76 0A 00 71 D2 37 76 4E 85
 BD 97 87 22 50 FB 6A 93 35 47 CB 9C 27 9C 97 D5
 3D 8A 8D 6B 8F E5 EC 95 A2 A1 C3 E5 54 B4 5A 32
 DD CB 38 55 7D D8 9F 6F 09 E9 06 35 E8 EF 39 8C
 C5 2E 60 A5 DF A2 40 58 C3 75 18 DF 5D AF B4 EA
 78 FD 88 E1 34 D9 A4 0C 8B 8F C0 CF 00 85 E2 6E
 09 45 96 EC 57 19 A4 8A 66 AF 69 3B 4C 0D B8 7A
 A0 23 70 A2 9D 36 9A 85 4E 7E 53 BF E0 E3 88 BB
 83 35 A9 3C B5 43 E3 D3 04 44 59 35 AC EC 58 82
 E9 65 35 94 3D C0 F4 2C 7B 56 32 9F 99 EE C0 A7
 FC C5 18 F9 6E 61 07 01 EF 08 E6 28 50 0F 90 6F
 03 5F 8E B6 17 C0 1B C7 40 65 7E C7 28 C4 E4 5C
 02 98 29 21 8B D5 6C B7 93 80 CC 3E 32 D2 55 1C
 68 8E 1B EA 32 1A 5F 13 1F D6 F0 49 5A E2 81 8F
 ED D3 30 EE BA C0 3F 7C 02 A8 20 C6 2F AD E0 63
 39 D6 31 0C 5B 8F 2A CF A3 92 C3 81 C3 DA DF A4
 2F 52 4D 53 A9 2F 3E BE 62 94 F5 EC 6A EE 87 86
 4D 4D 28 CC BF B2 3B B0 D6 FE 0B 5A 69 AE AB BE
 80 D4 2D 5A AD 33 3A D4 47 DC 34 1D 80 30 2B 74
 0E 25 0C 6E F0 62 37 70 2F C5 FD 91 D0 96 9A 89
 58 88 48 EC 6A 88 41 CC C0 3C 9F 17 7E 37 B2 CF
 80 B9 8D 3E 90 A3 E4 91 CE 70 89 A1 A8 9F 1C 4A
 93 66 45 29 6D 6A 27 90 0B 35 E6 BE DE 61 C3 A6
 DF A0 7A 50 BD 3E 48 B8 49 A1 03 6C 73 19 6B D9
 20 62 E3 71 5B 18 B8 66 FD 04 11 EE 03 EA 47 20
 8B C8 D5 00 02 C2 26 8C 0C 52 9F 7E C7 0A AF 02
 45 64 AC 07 D9 DF 9E 6E 5B D2 F8 F8 3A 7F 36 E8
 4D 9D A4 7B 3B 50 76 EF E0 26 FE D0 D6 4C 07 88
 76 F7 C0 97 78 F6 CE 4E 60 5C 53 36 D3 76 1B 07
 78 D3 F5 10 96 5A 01 C9 BD 33 2E 1F AB 2D C1 5D
 DD 33 A5 56 A8 F1 32 FD 4A E5 98 23 43 67 D7 5C
 33 49 1C E3 F3 3A F9 E8 FF 68 1E 54 19 64 9E AF
 DB 22 1A 89 47 59 6E AA F9 DB E1 BF 21 B5 CA 74
 D2 3F D0 75 36 20 A6 EF 01 CF 0B B2 F7 53 4F 1F
 93 9C 52 F3 75 10 44 9A 97 6D 63 BA 82 DC 07 F3
 91 B5 81 E0 9B A0 85 4C 89 0E 13 1B 02 31 06 B1
 5D 8D 6C 0D 4C B6 8C 5A 32 E1 0C 37 96 28 07 1C
 39 F5 B7 0F 84 4B D7 30 0E 46 9F 9A 9E 3C 33 B1
 42 0F F4 21 49 90 A2 F0 9A A7 19 A5 8F D3 6B 2E
 0D 1B 36 FA 10 C6 7E E1 29 00 21 B1 74 FC C3 0B
 C1 68 F7 7B 31 E2 29 ED E7 16 4B 5A BA 63 A5 B5
 B6 AA 0C A6 01 EB 05 0E 9D FA 0B A4 1C DD 06 A8
 8B 40 71 BD 81 A7 1A 8D EE 96 D2 DC 23 75 8F 22
 90 C9 84 85 19 7D 21 65 9E 28 AA 0A 2D 0D AB 8D
 8E C4 91 24 C8 BB 6D 27 18 34 77 DA F0 0C 8D 16
 57 28 AA FB 72 78 21 57 51 79 88 BC 8B 78 A5 63
 C2 A7 49 8B 4A AA 35 F9 21 73 09 75 01 55 FF 0B
 23 EC 1B 64 D0 EB 77 A2 F6 6F 25 E6 2C 95 CB 7E
 E8 26 BE A8 56 E0 4B 69 51 9F AD F6 55 F2 D7 F8
 BB 52 D3 19 09 2E FA 9E 91 AE A3 AB 35 DE F4 E0
 12 3D 0C 54 21 04 EA 25 26 27 45 C5 2B 0F 49 57
 E1 65 30 5E F0 C6 4B 1D 81 D1 93 8F BC 81 4C 1F
 06 9B 0D B0 8C 4F DB 00 D5 A1 FB 6D 84 F3 FC 79
 AB AA 14 E3 1A 57 44 66 4F 23 D0 F1 FD F1 AA 51
 8E 03 1C 3F 79 B2 40 37 BB C6 35 64 84 72 A1 04
 0E 5A 06 3D 3D 75 08 86 37 2D 5E 3E 51 8E 06 AE
 10 E7 C5 65 58 C2 5B 5E 04 5F 9D AB 0E 47 CC 25
 6E 61 53 BE F1 96 FC 07 3A D5 7F 0D E4 ED F3 BE
 B0 5A 53 F0 A9 7F 4B 92 76 E4 10 11 06 8D 81 E1
 0E 2D 5B 16 BA 6C D9 3F 2D 82 40 56 E3 40 59 61
 CD C5 EA 04 16 94 BF 99 4F DF F2 72 63 8B C0 FB
 04 89 D0 4E 5F 57 1E E4 B7 C0 AD 10 56 C4 C4 08
 50 8D 74 3D 3C BB 99 8E FC DB 80 B2 34 9B A7 9A
 23 B2 A5 47 24 E6 5E C9 93 EA 5E 93 CB B5 64 41
 91 C0 1B 69 13 EB AA BD B2 E4 DD 6D 00 98 08 14
 C3 24 B6 A1 1B 11 49 89 D0 BF 70 A4 AD 6D 88 C0
 21 1A 7B 21 41 D5 3D CE B0 F1 B1 05 58 1A 3D E7
 43 8A 50 9E FA E2 4B 94 62 19 30 4C 09 C0 EB 16
 1D DC 53 85 90 71 58 FD 8F C3 14 3B 60 98 85 94
 74 4D 7C 64 A8 B3 72 B6 99 69 96 05 F2 75 B5 CC
 92 DC 79 21 D5 AB 38 0F 2A A1 DA 71 F1 C1 BB C0
 6B 15 FD A2 5E 7A BA 1D EB A8 59 4E 13 52 7E 1E
 C7 61 6F 74 D9 D9 61 93 8E 74 55 CD 87 23 97 B2
 A4 0B F5 C8 FE FF 3F E3 0A 9F 58 9E C2 6B D2 45
 45 E5 44 B1 77 67 63 08 97 F7 92 43 64 F7 EA 6D
 2E 92 62 7E 2D 31 2A 61 6B 32 6C 3E 20 74 E0 88
 C8 8A 04 92 82 F3 4A A9 BA 5A F9 EB 48 6A B3 A5
 3E 09 C1 C6 BA D2 71 B1 7A 84 7E 3E 23 0D 5F 79
 5C 16 10 1A D4 BB F7 14 88 21 2C 39 BB F7 F2 10
 80 49 2B DA 1E FB 86 C9 2B 7E 99 3E 45 9B 88 CC
 97 B8 C4 0B 2A 78 90 8A 2C 03 B6 C4 80 9D 38 35
 76 20 AD 5D 8E B2 5D B1 39 72 B9 48 5C 6D 85 08
 8D 31 E0 4E 44 5D 99 CB A7 79 9A 1E DA DC 47 D0
 40 2A 8B 69 39 21 43 16 33 B8 4F B5 9C FB 9C 37
 77 C2 68 CF 3F D5 FE A2 2E 24 C9 5B 46 88 E8 1E
 67 9C C8 51 20 8E 25 C8 49 35 72 AD 97 21 19 A7
 C3 C6 FD 31 80 68 62 40 C3 F1 78 BA 4B 3C B8 65
 C6 98 97 5B 5B 50 07 8E C9 2B B2 DB AD 81 25 9A
 4D 6B 97 6D 94 AD 16 18 78 46 F5 D8 18 C7 29 F0
 EB 45 25 B9 51 81 7D B6 CE 9B 10 E6 62 2B 31 8C
 31 FB FD B0 97 AC 66 46 47 3D BE 4D 85 C7 00 D4
 23 AE 80 C3 BE 0B 26 F8 3A 50 36 50 A4 CE 28 E3
 FE 64 C1 DD F4 9A 55 C6 CF FE 28 D9 73 EB FC 67
 27 59 22 A2 54 A5 08 1B 15 7B D4 55 83 6E 84 19
 DE EB 48 10 33 CB 57 62 7A 67 BD 88 63 C5 87 35
 8B 0C 35 78 13 29 8B 8B 13 48 22 BE 27 8E 1C 9E
 B6 46 E9 0F B6 DF C3 CB DF 1C 00 5A 67 3E 59 AA
 11 B6 E1 07 E7 78 B1 C4 90 AC FF AB 10 2F B0 75
 E6 AF 71 51 2D 5D F7 BC C0 70 0E F2 44 61 08 81
 3D CA F0 F7 29 47 6E 57 88 8D 64 EE CB 8E E7 15
 41 F6 7B AD 2E 98 42 B0 3F 15 5D C3 0A B8 60 A6
 5D 08 DA 2D 06 81 47 22 13 2B AB D9 3D D9 CA F3
 3C 9F A9 AF 96 78 6F B4 3E E6 CB 1C 40 26 C1 6C
 90 0F 58 11 ED 72 8B A9 BB 20 D2 30 6A FF FE A3
 11 A7 DE 8E 22 1D 1D 41 D3 95 1C 4F B4 E3 92 4F
 84 91 C3 6D 23 C8 11 13 DD A5 21 FC D1 EF C7 D8
 3E 08 F5 51 F6 5E DF 4F 28 71 FB 58 D7 A7 1D 96
 9B 47 69 81 98 4F 5F 72 4B 0E 8C 0C 90 91 C8 19
 DB F5 4B 08 4D 74 11 65 D1 0D 7C 31 34 77 27 86
 17 46 A1 73 71 29 F8 65 17 3D BA 62 3E DA D0 1F
 7D C5 E8 CC 56 6B A0 BD B2 08 F0 CD 25 D1 BF 0B
 59 7A 98 34 43 70 86 4A DF 2C 90 94 6F 4D 73 D4
 89 95 93 50 18 10 81 4B 69 81 10 9E 16 63 9E B7
 7D 76 4E 56 E8 C6 9E D6 40 25 99 FE DC 1E 3A 2C
 CE C1 0E 17 DD E7 36 BE EA 0A 62 D3 35 18 83 6D
 CE 63 72 B4 9C B3 5D 39 EB 91 38 4F F5 C9 2D B1
 45 50 26 70 28 10 96 18 85 CB 80 CE 5E 99 01 E0
 80 EC 71 85 01 B4 1B 4F 57 3A 21 91 0A 92 F6 9B
 12 01 CB C3 9B 33 4E 4A 12 98 EE B4 AC 3D 3E D1
 EE 68 F6 9B 39 C2 CF 7A 72 22 FB 4E 6E A7 04 8B
 36 25 6A C3 69 B9 2B 0B 17 F0 8F 80 28 86 E6 D0
 06 05 15 FB 85 35 7F 07 8D CB CF 81 27 5D 4A 89
 3C 13 F8 29 90 C9 49 B7 76 9E CB 9C BC 24 5F 15
 D8 18 1A 26 73 AE 30 74 51 79 27 1B B6 21 69 72
 51 C9 00 07 71 B0 AB CB C2 A7 F2 E6 B9 AC D2 CE
 75 22 C3 E7 58 EB 5B 68 A4 27 A4 E5 3A AE 0D F5
 8F 93 ED 5C 82 FF DE 8C 2C 85 80 04 A8 BF 13 A6
 B9 0A 33 47 1E 67 75 C3 28 91 55 02 6E AE 31 6A
 46 A8 52 44 62 C5 84 9C 86 A3 46 A5 FA 08 A6 6F
 7A 43 BA 83 CB 00 56 92 BE 32 C0 DD 90 A4 A2 90
 B7 80 8D C3 F8 C9 ED F3 AE BD B2 0C 34 94 A5 84
 25 36 50 B5 BA 7E CE E4 A6 D9 57 49 D8 A8 3A 52
 97 11 21 2D EF CB D5 08 6C AF E6 90 03 37 2D DD
 51 44 80 41 E4 0B 54 B3 D0 D7 03 7C B3 3B 81 D4
 FA A7 D9 E6 56 13 9D 07 CD 87 EC 50 0B AB 19 3A
 B9 89 D6 4C 8E 33 71 77 67 A0 5A 58 18 D1 0F 83
 16 94 19 B1 25 D1 3F C0 06 F7 C5 99 BC 3B F1 09
 25 1E 1D C6 95 6E D0 04 F0 E5 85 9A 03 7C A5 DF
 5B 6A A4 3B E2 9A C3 0B 92 8B B0 03 28 34 D7 AB
 E4 38 65 2F 34 2A 4B D5 76 39 58 1E CD FB D4 92
 9F 20 97 1C 50 0A 28 7A E1 3D AF 7A C6 5C 4B 56
 64 A8 BF E8 70 E8 B9 13 C5 82 BA EB ED 4E 59 87
 01 57 AB 6C 50 5A 94 A6 AE 10 7B 9F 4B AC 31 CC
 73 B6 6B 39 9A A0 99 85 72 0C BB E2 0E 0A 50 6D
 34 1A A9 3F CB 39 53 0C 7B A0 7C 31 D0 EB EE D8
 F6 97 35 07 5E 86 1B 18 C2 31 F4 B2 0B 85 E8 C8
 69 A6 21 22 EF 92 A8 C8 E7 B3 A9 F5 E4 62 9D 4B
 C2 EF 47 CF A6 AE A6 8A 6E 4A B8 83 95 D3 DC 64
 4D CA 5C B6 15 4B B9 80 87 C7 1A 45 93 33 65 5A
 8F D5 AF DD 19 89 E5 DB F2 67 20 3E 61 64 4A 1E
 EA C1 2E 8F 33 A6 1A A9 CC 0F 58 C1 84 A0 39 24
 7A 0E F6 F4 A2 FC 19 8E 77 78 44 84 FC 03 62 9B
 34 C5 B9 DE D4 D5 24 98 D5 DA 10 87 30 77 FD A6
 8C 84 C0 69 87 89 2C 5D D4 A6 8F F2 01 51 49 89
 A9 D8 E1 C9 D1 FE 9D 6C C0 74 E3 15 96 4E 74 F1
 3D 07 EE 9C 7E D2 BE A8 93 2C 41 A9 26 6F 21 0A
 E8 75 DF 6D 1F 7C 8B 7C E8 3B C0 75 1D EB F2 30
 F1 A5 05 A6 73 14 8A 63 04 4D F9 0B 6D 5F 5F 09
 5A C5 61 0D EF 93 4B AB E0 DF A5 E6 A0 F9 07 7E
 57 18 88 29 B7 93 EA B4 EF 77 4D 6B AF 3F B0 8D
 53 DF 94 E8 A8 66 01 BE B9 E2 C8 87 76 29 45 41
 51 4E 2F BE B2 BF 7E 59 91 36 33 0D 93 E2 EE E9
 7F 3B 24 6F 94 41 69 6C DE DE D4 AA 9F E9 CF 5F
 F9 C6 A5 61 D6 85 E1 CD 10 86 9A FC 2A 43 28 8A
 9B 5D 05 53 6B 4E FA 67 D9 EF BE F4 1F 6D 98 F5
 77 8E CB 24 55 CE 77 1B 2A F0 9E 79 A1 52 21 D1
 03 23 FD B3 84 EF 84 C1 EE 42 28 70 DD 70 98 B8
 56 D4 8B EB 85 B5 95 2F EC 13 F0 60 C6 3D AB A7
 AC FE D9 14 CB EF 7E D3 A2 C4 24 00 67 14 61 61
 EE 65 BD B8 84 4E D1 70 93 E8 48 42 6E 41 C7 22
 2D 4D 44 74 32 2D 9C 1B A3 98 10 74 BE 98 25 74
 33 FC F6 C6 BF 78 7A D9 A5 F4 0D 07 1A 2A 48 75
 55 89 48 2E 7A A4 47 91 DF A9 66 9D DD DE 56 6E
 AD 66 84 11 09 50 BD 86 6C AA 53 4A 62 37 7B 1B
 46 B6 C6 EF 93 96 C4 18 3A 78 C4 10 34 23 17 1E
 3F 72 9A 50 28 C9 92 E9 A1 BC 31 C5 63 D6 91 C4
 D6 BF 2E 39 53 B8 4F 2B DF 0B 5E 19 63 A7 07 CC
 27 27 1F E4 5D E5 21 F1 ED 23 78 5B 5A CF 28 F8
 4D 8C 1B AB 19 DC 22 99 DF EA EF 3D EB 4D 79 5D
 BF C7 E1 0E B1 57 A4 FC 2F BD 53 BF B8 C4 93 40
 3B BD 96 97 B0 36 6A 0E 42 AC 7F 2D B5 9A 06 97
 7C 68 EB 32 3F 78 7C 19 F6 56 D3 DE 61 46 D5 A3
 0A 59 6E B3 39 97 00 CF 6B D5 1F 86 EA 35 85 3E
 C4 FE 7D 96 ED 11 53 84 55 E0 84 8A 21 94 48 32
 2A 6F 74 E4 E5 59 D2 52 7F 43 ED FD 5E 51 22 86
 B0 98 4E A1 E5 68 BB BE 3F C9 64 B3 20 10 3C 45
 56 FF B3 F2 51 22 C1 E8 F9 98 30 7E 87 91 AC BB
 B0 0B 8A 4F E6 79 95 31 7F 4A AF 79 74 7A BB 8B
 81 D3 77 9E 8E 1B 26 18 4F 73 D4 1A E3 09 2C 89
 9F D0 E2 F9 AF 16 1F 0F 7E 95 A4 E3 97 BA 2F 5F
 37 CD B8 B9 C3 C9 D1 7A 00 2E B5 70 D3 60 DC 92
 46 CD A4 0E 84 7F 27 B2 4D 61 0F D1 E3 25 2C FC
 93 D0 E8 C3 FC 35 BD B3 19 47 04 9A A6 95 38 F3
 55 EB 9C B4 A7 54 94 F1 1D CE A8 C8 F6 B9 FC 5B
 72 A5 E2 51 F0 8C B6 F5 C8 49 F8 2F 66 AD CD F4
 B5 A0 14 6A 65 33 81 EC 56 44 71 4D 00 1E B3 68
 5A 87 66 1E 2A A0 06 39 21 45 A2 59 55 AB 85 B3
 94 48 D3 85 02 D3 93 E5 0C 8D 57 57 D2 C7 2C B1
 96 F5 2E 39 83 16 90 DA F9 E1 C3 82 87 3B F3 E2
 5B DB C5 EF D7 1A B3 A0 D1 03 E5 4B E2 71 02 A3
 91 82 14 92 E2 91 07 7E 0E 40 22 C6 F0 85 D5 C9
 F5 6A 6D D1 50 69 3E 55 C3 21 BA 70 EA B5 D6 DE
 1C A2 37 01 5C 6A AF 0D D6 46 93 98 4C D5 C6 A0
 6D 67 77 6B 64 98 D2 6B 8C DF 54 18 CC 8E 9C 84
 75 54 AD EC 0E 0C 62 2B 4F 44 E1 1B 55 C8 71 E5
 FB 89 E2 BA 13 69 53 61 F9 FC 9F 74 90 FC 3E 17
 01 D1 BD 65 B0 29 98 81 51 15 AD 6B 44 8D 2E DE
 51 79 20 A5 7F 57 E3 CA 4A 0B AC C9 8A BD 65 38
 A9 13 E2 AA BB 23 67 E0 1D 26 33 7D AA 7D 6D CD
 72 91 97 DA 27 0B F1 3F 07 D0 4A 07 B9 20 2E 9B
 82 8F 70 6B 3D E2 C0 BD FC 47 E5 BB B6 77 D3 97
 66 69 C8 7E E2 B0 9A D0 22 82 80 52 D6 4D CA 5C
 E8 10 F3 5F 61 22 13 06 84 A0 A8 53 A8 54 0B 24
 C8 27 43 A7 3B BF 91 51 F7 19 0B DF F2 E8 9B 12
 D9 37 E1 C4 A0 F3 28 07 86 09 11 5C F4 60 B7 6C
 EB 60 20 8B 9C 2E BD B8 11 9F 76 B8 8D 3D CA 56
 67 CC B2 D3 84 FF EE E5 04 5A 38 FA 0C 38 BD 08
 2D 9E DD F6 58 AA 50 E8 C5 2C 44 22 43 2D E4 54
 61 2F AA 7F A4 8F 06 56 74 2F 9F 77 51 D6 5C B8
 B0 BA 2E E1 D8 ED C4 CD C7 25 4B AE CB 0D 0E C5
 43 D2 F8 7D 8B F5 40 FB AB CC 5A E9 95 6E 06 8D
 72 61 24 97 E0 B5 28 C7 D5 07 0F 60 1E F8 60 BD
 CA 88 7A 74 AD A5 80 8E 72 EE 7E B2 C6 30 7F DD
 2C 29 E4 CC 9E 82 A8 25 41 36 EB DB CA 03 FB B8
 80 D3 1C 78 A1 5C 8D 8C F8 70 67 53 5B CF 42 26
 AA ED 36 AF 6D F7 36 22 26 E3 B0 3C 48 CD F2 F0
 72 84 BB 17 40 30 96 C0 4B AB 7E 10 F9 1B 3E ED
 EB 62 E7 8D C5 FB 9C A9 D2 F5 38 C1 36 7C FC 8E
 FC 5A EE 55 0F E0 05 37 60 44 7D C6 EF 08 51 34
 5C 7C 60 94 46 A2 9C BB D7 E0 74 A7 49 A7 76 3D
 7E 99 A9 B1 8A 0F BA 72 1C 53 B8 7F 0D 01 26 21
 0A 39 50 57 6C A8 3E 97 E9 00 7F F3 5C EC 9A 5B
 82 25 B2 28 EF C3 DE 89 BE BC 98 97 63 AC FB 64
 A0 EE 9A E7 82 39 CB 1E DE 05 1A DE 4D 0A 81 98
 5A D8 93 67 A2 35 03 FB AD 0B BA 7B 05 2B 7C 88
 FB C7 48 4F 4D D8 73 7B 15 19 48 B3 6B 87 D4 45
 77 79 FF 21 6B 47 8F 4E 17 FE 64 0F EA F4 38 B8
 C7 5A D9 14 F0 9B 47 04 83 9F 09 44 D1 28 74 15
 78 99 C2 6C 60 1C 61 98 C6 3C 33 80 4C 45 BA 14
 60 00 09 BF 60 C4 D4 70 4B 94 A0 7F 24 68 32 F8
 56 C2 12 18 BB 8B 35 2D E2 24 2B 4D 89 5D 3D F9
 63 0F 69 61 B5 EE 70 12 03 00 A9 DB 4C 29 7D 43
 6F 99 D2 E6 D5 A5 F2 8D 9C D2 66 06 F2 C9 DA 9F
 82 C0 90 B8 A3 83 E7 57 41 71 7B D2 55 B4 13 F3
 DF 0D 5E F5 E8 2F 1D EC 62 80 33 0D 2D A1 E5 0E
 D6 29 BB 63 25 2A FB F3 42 D8 32 90 9B D1 9D 85
 26 BC 03 77 7D 4A EF 29 69 11 02 04 98 DE 81 76
 0F 20 65 B2 8A EB B8 26 E5 10 58 23 CE 2A 54 C9
 0C E0 EA B6 58 E6 13 2A D3 B5 F1 C9 3B B7 58 10
 FC BE 96 A1 68 AC C9 56 CB F8 E8 07 5E D9 6D 9E
 28 2B 40 A7 F2 0C 23 A5 7C 6A A3 00 6C 74 AD 8E
 1F F0 37 5B 7C 4D 10 BD 74 12 C9 1D BD C7 69 0A
 EC 47 25 1D 96 16 74 B7 E7 EC A6 BB E9 5D 4C A2
 85 76 32 87 05 F8 A0 3A 8B 24 83 4D 2A 4C 4A 0C
 85 C4 89 29 B8 31 B6 4A A8 89 2D 33 79 1F 07 76
 13 27 A5 D1 70 B7 BF CA 5A 4A 64 BF D8 05 3F 21
 A2 E2 42 7F 7B D1 1A 42 39 C0 97 BF AF 72 FE BE
 71 94 CA 3F 7E 78 41 49 8A 95 24 E1 8C B0 B2 A3
 03 9D 9B C3 D7 04 A5 BC 7E 8A D2 13 99 FA 22 A4
 00 70 BE 71 7B 30 F0 C4 F6 7C 74 80 10 30 E9 D0
 2A D5 C7 08 44 F6 A5 38 52 61 8F 9D B8 21 12 DE
 2B 70 B6 40 5F CA 99 25 64 25 3A 05 00 29 52 4D
 50 08 5B 06 EE 41 99 2A C2 BC B5 D9 07 8D D5 D3
 FA 8C 86 1D 30 7F 58 7B 87 C3 29 2F 84 90 C6 3E
 74 4C 7D C2 69 2E 59 08 40 37 7D 00 5A 32 0A CC
 A8 4C 05 CA FA 29 A1 AD 5D D1 69 0E 5A F8 A9 53
 96 BD 76 93 CD 51 7D EB EB F8 4B 4A 2C 94 DA 04
 FB 27 8E AD 2F FA D1 87 6A 71 46 3E 30 00 33 62
 75 62 52 B8 34 0B 31 34 ED 41 BA 52 48 C7 13 18
 CA 61 7C B8 68 3A BB BB 65 0E DB 7B DD 98 89 B3
 65 6E 1D ED 43 08 9A 30 29 52 28 D7 BA E2 0E E4
 4E 1E E1 52 67 90 5B 3F 36 AD 19 1B B6 FE 78 2F
 9F 05 6C 6E 20 69 28 45 84 8C EB 3E 99 9B CE F7
 D6 DA 92 F2 00 F1 4E CF 00 8B 45 E0 35 C4 C4 EE
 DF 47 C0 F6 02 C0 A1 31 44 5E A4 E6 0F 72 29 88
 77 8A 6C 80 02 3D 73 CC 16 19 4B D5 1D 2D 55 8A
 1D 47 82 91 06 E4 E4 9B B7 0C 27 DB DA B1 88 6D
 42 3E 99 C9 BB 7D 0C 17 F8 75 5F 11 C4 BC 09 B7
 5E 90 2D 2E 31 0D 74 78 43 16 00 6D BC 63 4E 0C
 9B 27 3E 8F A5 F1 E1 49 94 6A F4 9E 2A ED B4 24
 3F 21 91 3E 83 3D A8 A7 2C F1 C3 F5 1C 4C 64 60
 E4 62 AA BD B8 84 A0 B0 A1 EB 81 51 84 04 19 87
 B6 03 76 1C 88 E3 7D 7A 84 E9 49 E4 57 35 6D 96
 9F 39 0D D2 C8 69 D6 26 F3 9C 56 DE FD DD EB F5
 AE 0C 7A 11 AC A1 D0 A6 24 0E B0 04 5B 94 BF 77
 2A 4C D5 05 36 34 D7 21 84 89 86 95 65 29 82 36
 40 9E A8 E2 CC 86 37 89 F0 79 0B 08 FE 51 EF AD
 32 0C DE C8 DB C5 A2 E3 A2 BA 03 45 2E BE C3 A3
 E5 F7 11 84 DC 47 72 DC 7D BA 4E 16 D5 D6 36 39
 F1 E3 13 C7 7E F4 CE 52 E2 18 9F DB 1A 08 39 C3
 A5 2D 09 3D F7 32 6F 23 D8 2E B2 8B 91 2B 70 F7
 26 B3 37 B0 CE F7 85 4D 1C C5 BB 37 D8 0E 86 CC
 A2 51 46 42 19 91 1F 2C DA D2 62 34 F2 79 CE BF
 FA AA D5 EF F2 0F 13 5B E3 03 CD B5 05 37 15 C7
 42 1B D1 DA FC 2F 23 DD C8 A7 2B 32 F3 55 36 5C
 05 99 B6 4D B8 08 39 FB 6F D2 8F 3B F0 DB 51 EA
 C2 25 10 AB 79 EB 60 3F 84 23 2A 9B 17 F1 C9 6E
 C2 AB 63 FE A8 8C 43 96 AD AA A7 A2 72 A2 6F 02
 40 99 A7 8F B6 D8 55 74 4C 47 33 55 DB 80 68 FB
 09 4E 3A 8A DF E1 F6 75 34 7A D9 A5 2D A0 9C FA
 71 D3 E4 DE 74 C5 61 BD 92 AC 21 1C A1 A8 07 AE
 8C 00 57 C6 7B 76 FB 1D A7 CB 44 51 FA 82 B1 00
 77 74 69 E5 4C 5D FA FD 07 12 96 BF 26 CC 76 CC
 19 23 E2 1A 0D 27 28 DF BF D5 BD 21 EA 34 6A 3E
 20 C3 9D 56 F2 77 D0 11 F0 E6 7A C2 B7 CB 5D 11
 9D A6 3C 66 01 AC D9 F0 2C B0 63 7F BE 05 20 5C
 C9 A5 8A 39 C1 5B EE 81 3B D2 C2 ED 49 B1 2B A2
 0D F5 20 4E 69 AF 6A E4 4F 2A 36 41 0C F7 6D 75
 13 E6 33 B5 00 EB 85 DC 58 AF 92 63 D0 02 AC 84
 D7 09 32 87 A9 E0 02 BF 49 BE 10 90 15 24 CC 1F
 00 D1 65 C9 79 78 90 98 6D 34 4E BA 90 1D 4D 13
 09 FD 8C 0F AB 48 1A 13 39 D0 F2 83 1C A7 6C D5
 65 D9 A8 A3 C5 75 16 49 0A F7 FF 0C 6C EB 6A 09
 23 22 87 06 DC 89 76 44 AD A3 0F C2 63 A6 8C D4
 E5 39 27 6E A9 16 2D 83 81 1A B5 38 BA F6 C3 D2
 29 0B 20 01 FB 5A 7C 77 71 A2 08 AF FD CE E7 D2
 F1 81 77 A7 71 39 4A 96 D9 12 D3 FE CB 02 1C 28
 E7 BE F1 5C 1A 22 CA 7A 61 6F 8C 02 E9 2F BF B0
 99 FA E4 F1 CB 5C 74 DC D5 D9 0D CE EB 66 A2 E3
 B4 A7 3D 72 87 E9 0C 23 08 D2 E0 06 6B 17 E0 23
 37 6A 95 4A F1 BA 8B AA B8 70 94 FA FC 3F 24 2A
 B7 B3 5F BB 5C 73 DA C8 78 36 D8 5C D1 32 C5 54
 DA D9 50 E4 23 2A 5E AE EE F9 05 25 24 C1 A8 8F
 36 34 C1 2B D6 54 CF A6 1C 09 DD D8 2E 6C 3D 6B
 88 9B 00 C3 ED 3B 6D 7D BC 61 4E 6E 48 76 16 D2
 40 E7 02 99 34 96 4C A4 F9 24 0A 30 6D 60 2E 40
 A3 8A 33 3C E5 10 61 42 33 43 27 9C 92 A7 38 32
 8F 20 0F 51 E1 2D 5C B2 9C FC 25 C6 C4 D6 79 52
 EC 10 11 3A 9A 95 F1 20 9A A0 8B D9 A9 7C A3 F9
 B3 3F D6 70 6B 93 C8 00 4A 67 AE 55 E8 A9 CC 20
 8C CA A2 08 DC 4A 2E B5 B9 3A 2E 96 E4 0B 54 CF
 0C B2 48 2F 39 A6 7D 9D 42 87 2B AE 28 CC BD 09
 E5 F4 75 C2 FF C0 2A E8 19 4E DF F2 AD B6 74 02
* End 2556265331 4226358010