* LTspice Encrypted File
* 
* This encrypted file has been supplied by a 3rd
* party vendor that does not wish to publicize
* the technology used to implement this library.
* 
* Permission is granted to use this file for
* simulations but not to reverse engineer its
* contents.
* 
* Begin:
 36 C3 21 02 A1 49 50 25 CF 7E 1C 01 B2 96 7D 29
 05 B3 2D 67 A0 7A 11 5F 93 41 AA 98 B3 07 C9 FE
 70 88 2A 05 40 46 12 5C 18 4F A6 EB F9 EB 36 1B
 C9 7A 8F 18 2A 4A 2D F3 12 E5 2D 21 98 7D 2A 3C
 8B 25 9D 65 B5 02 5F 1E 91 FE FF 41 1D 59 54 43
 1C C2 AB 32 5C C3 4C 8B 51 0D 1E AF 5A 3C FB 01
 2C 70 60 B0 06 7A F0 05 6C 66 B7 E3 AF B5 9D 42
 89 D3 78 93 E8 EF 30 45 38 60 39 7F 70 FD C4 49
 74 8B 39 6F E2 56 98 53 9C B1 31 AE 92 AD 50 44
 AE F3 B8 5F 46 B2 23 6C AC 92 DB 76 27 6C 63 FD
 AA 32 8D 3B 51 82 4A 60 84 9E 2B CB 48 E8 8A F1
 A5 B7 24 6A 56 0F BF 9C E7 9E EE CC 38 82 EF 19
 37 7F 12 22 9D 19 EA 21 A8 7C D1 08 24 36 B9 69
 41 88 A4 C3 E6 E7 F1 BE FA 77 67 DB 48 F8 7B 2B
 32 2E 7C C0 48 D8 7A 83 E0 D6 3A 40 68 94 DF 9A
 15 B8 E3 3D 9D 32 DC 5C D5 1F B7 65 F1 58 C9 29
 D5 F9 45 C6 A3 98 7F AC CC F4 0B 1A FD 6C BA D7
 ED F3 77 CD C1 E5 E2 1A 55 26 CD B1 19 61 AD BB
 06 0A C2 26 7D DF 92 3F 58 CA E5 9D 70 A2 A4 9E
 0E 30 DC DB 66 F3 00 89 2C C2 53 C1 21 4D 36 8F
 A6 29 E7 DC CA B6 74 28 B2 90 B4 D9 40 15 0E A7
 6E 91 F3 89 00 EE 42 93 04 AB E5 36 CE 29 50 B0
 FC 52 D1 6A 30 20 14 44 47 44 E9 9C 3A 2D 6F D2
 18 19 43 3B D0 90 A5 58 9D 0E FA 15 64 13 E4 32
 61 27 B0 23 B5 16 5F 50 AF E6 3A 19 25 B0 B9 A1
 F6 29 CD 53 48 23 43 33 11 E9 54 DA 6C FC F4 F9
 DF D2 74 D8 01 C4 1C F8 B6 97 2C 31 DE 0B 12 8F
 89 70 E0 FD 6F F2 F5 B6 7A 39 69 B5 E6 82 7B EA
 5B 60 65 DA 5A BA 6B C8 5F 90 16 A2 00 F1 10 D6
 C0 E2 EB CF 73 DD 14 C7 32 86 CC 8E 47 39 B2 56
 92 6A 61 B6 52 7A C9 48 FB 40 AF 40 49 EE 40 C2
 AF 3B 4E 8E 03 9C 0B 09 FD BA 6F 3F 1A 7E 6C B8
 65 0F 4B 50 1C BC EE 0C DD 14 0E 85 9E 99 45 9A
 DB DF 86 14 A6 FB F5 4A 85 1A 2F C6 1A E0 E2 46
 09 01 79 C7 69 BF FC 3A 88 0C 72 B4 35 A9 F3 7E
 8E C0 E6 09 92 E7 D9 17 59 7D 3C 95 FA 11 5F F3
 C0 9D 33 21 69 61 B9 99 AB 97 74 92 9E 38 87 79
 43 EF FD 7F 20 E1 1A CE 89 0E 7E E6 A9 F9 62 F8
 BF 69 FB 00 17 29 67 56 D4 61 11 1A DC DF 29 85
 5C E6 58 24 49 72 DB C9 00 F1 16 AF 77 0E 29 89
 A8 DF 56 13 79 1F E7 5D 95 1C 83 E1 10 66 08 E9
 8B 01 51 BB 13 86 2F EF E5 01 11 11 10 38 5D 67
 38 D9 24 1D B7 5B 85 1E 4E 4C 1E D3 5B A2 C7 24
 35 4A 7F CA BF BC 8D EB 68 C6 1F 03 C7 C4 7F 4A
 E3 75 38 77 55 C1 95 89 6B A6 41 2A 53 88 B2 95
 E7 FF B9 62 6C E6 2C E7 3D B6 90 A1 25 48 FE 5E
 E3 73 B9 D0 49 6C F9 95 6E 0A 29 51 86 E3 95 55
 DA F5 B1 5C 74 33 7C 4A 37 08 97 63 C2 2A 26 05
 6F 70 B3 2B 36 C0 34 35 05 48 98 CD 88 BB 32 1A
 3E AA 05 4C AD E3 8F ED C8 7F E7 27 BF F4 47 5D
 4D 9E DB BE 53 21 6A 40 C9 81 52 83 93 3E 83 B9
 59 6C 68 39 4B 95 5C 77 7A 1E EC 13 62 D2 DA FD
 74 65 03 56 FA 59 F3 2B BD 48 12 D5 48 BC 90 C7
 3D D0 1E 47 34 BD CD E8 42 0E FF 4A 3A 82 8B D3
 D0 35 A6 90 6D 6A 02 84 55 BC 1F AD C2 19 89 3C
 67 8D B0 CA 73 FB 33 5F DD B7 F5 3B 74 4F F8 F2
 79 38 72 D4 50 8E B9 FC 75 A6 A7 15 DA 46 1A 0A
 C8 D8 9E 1E D3 E5 77 97 3B 5C 0D 29 8A AA 94 F0
 13 19 A3 78 2E 5C E6 83 D0 25 51 E2 4F D7 A9 4F
 DE 5B 28 B6 A4 0A 9C AB 1C 25 5C D5 92 FE 98 A1
 58 3F 4E 72 06 C9 72 52 DD 9D 53 25 32 72 B6 7D
 DB C6 E9 83 72 6F 2C 48 3E F4 34 A2 25 D7 C6 41
 A3 ED 1C B2 7F 28 C8 30 7D A2 E0 DF 3B 7A 4D 4E
 79 AC D4 C5 67 13 0C F7 41 EB C6 E4 FC 66 D0 00
 78 47 30 E2 C3 94 12 D0 A0 6F FD 44 BF 09 E1 62
 26 79 FD DF 63 BE 91 0F 8B 2A 67 27 B0 7D 44 D7
 E6 5F 62 EB 11 3B 56 2F 1D BE AD DC C3 83 B9 F9
 B4 CA C9 05 4A 2E DC EF 32 73 77 33 06 C7 8E 97
 B9 02 4B 48 B7 C9 A0 4C 49 9D CC DD F2 28 FE 35
 04 6F D1 6C 7A E8 3B 01 01 A1 A9 9D F9 3F D5 11
 3F CE 77 CB 5C B0 A6 E4 BB 16 C1 3C 88 99 B9 6A
 88 4E 05 E7 B0 14 65 39 C5 89 5F 04 39 90 EB 19
 F1 7C F4 06 2A 88 11 DF 23 05 C4 FC 1F 57 53 47
 89 79 64 FD 48 F6 4C 5C 8E 85 6C FE 73 34 3E A7
 5F 29 21 87 3A 10 DC 52 D0 DB 21 72 E9 4B 6E 4E
 8B 12 E7 8A 7D F3 63 53 F0 9A 51 B4 70 14 F1 C5
 43 85 42 2F 12 D6 D8 70 93 72 72 B1 BF 61 FB 21
 60 94 8A FF 68 1F 31 1B F3 DF 90 1F E0 6C D4 39
 73 62 89 B5 B2 4D 54 55 35 9F E9 E6 5A AA 32 B2
 81 B6 F9 3A 5B 03 D7 03 A4 91 7D 22 C1 C3 A7 33
 9F EE 81 56 43 BD 74 8B D9 F2 A3 55 BF 37 C3 5F
 27 5C C7 5C 89 12 71 F3 2B BF C8 8F 72 20 CD DC
 34 F6 42 80 DF 60 9F 61 55 8D DA 56 38 A4 7E 65
 23 31 CA 5A 5D 46 1D 2E 3A 53 DF FF B4 28 95 85
 CC 77 DA 21 D8 87 8B DC 90 3C 96 7F DE 68 F4 CA
 87 D7 B4 2E DB 54 25 E1 C9 8E AB C5 32 41 FD FF
 47 B8 CF 56 4B D5 D4 73 B3 B3 95 13 F8 CF 57 D4
 7B 62 74 8C D1 2C 68 BD EC 47 6C 8F AE 08 A5 C3
 57 42 F4 9A 5C 03 11 BB C0 E1 16 7D 29 41 5B 5D
 68 9D F6 7F 9A 9D B9 3D 1E 5F B2 23 26 F3 1A FD
 58 44 C3 55 E0 C8 A1 2C 65 99 C0 6A 60 1F 3C 71
 89 2F 47 24 5A EE 21 66 A3 9F 32 A1 3C 37 92 15
 5E A3 09 35 2D 73 8A 33 E7 E8 F3 6C F5 35 77 AF
 2E F0 FC F6 5B 77 2F 0E 2D 8B C1 AB 57 9F 6F 4F
 81 99 54 0B CB 92 D0 39 63 FF 1C 5D 09 6D EA C1
 A1 38 F6 AB 5D 19 E8 48 22 58 71 7B 21 91 1A BA
 ED 26 51 51 D3 FD 67 21 37 92 2F E3 F8 D6 3D 65
 AB DC 72 9F 48 FD 04 2F D7 A2 A3 3F 92 A0 AD BE
 3A 5E 16 6B 4E 43 83 B9 78 CD 43 99 18 C2 70 6B
 C8 80 94 90 66 AC 6E 2D 48 F2 AB 9B 51 00 3E 45
 36 3D 97 6A D1 90 0E A1 FB 3F 5A D4 C1 F6 5F 4D
 C7 87 D1 9E 47 4D FF 2C A0 C8 F0 69 B2 90 6D 51
 82 C8 10 0C 65 92 44 92 E6 57 1F 07 A3 0A 2E C8
 14 D2 5F 94 39 22 1C 65 F2 48 A0 C5 82 F4 37 2F
 09 C8 5C BE 3D FE AA D9 63 A8 19 11 81 A8 68 7B
 BA 5E 6A 7C 30 A6 DE 2A 0A 19 A4 E3 E3 83 47 02
 02 AF 1E 11 DF 16 73 2B 74 51 38 29 13 B3 F3 54
 83 A9 B4 4B 67 C4 9F FF 53 3B 34 E2 5C C5 89 70
 F3 71 14 91 85 14 5C 90 07 FC 5B 41 CA D7 81 4A
 8C 7B 2E 39 89 6D CF 23 E0 C6 B6 21 4E 9F 91 40
 95 36 81 3D 13 77 3B 70 EF 73 49 82 A3 76 BF BD
 3C DB 4F A8 24 66 C4 91 21 6A 97 31 95 ED 7D C9
 C8 15 D2 40 AB 29 6E 9F 55 32 C5 36 D1 59 23 96
 1F 0D C1 CD 33 89 58 27 CA A4 21 6C 06 5B B4 43
 D5 C1 CB DD E6 BF 1D CC 0F 8D A4 AA FF 8F A8 1F
 95 30 D4 19 73 EA D7 93 65 72 1E D5 E5 A4 38 24
 98 F6 05 F7 6B 3A 30 36 60 B0 C1 BD F3 3B 50 4A
 8C 37 0D 45 66 28 C1 38 07 89 F8 CB F4 09 CB 04
 F6 E0 23 9D B1 13 DD 70 7B B4 28 F5 6B D4 4A 97
 68 7F EA F6 D3 C6 E0 CC ED AD 7B 9B D2 56 8C 02
 7F 24 5C 6A 57 8B A8 1A 3C A6 3E F5 7F 8D 45 EA
 DD EC 25 D9 A8 D6 D6 18 35 DF 6B 2D CF BF 74 59
 9D 17 15 A7 63 5C 57 0D AE F3 06 62 82 2B 8E A8
 17 50 4D 7B F9 F2 B9 F6 5D 2E 33 11 DE AC 1F 59
 09 D8 C8 66 00 1B 51 B8 43 2A 56 10 F4 2E 9A FE
 7C 31 BE 13 BB 5E 4F 6D B1 0A EC 38 94 65 F2 A9
 01 27 4F 1A 2A 9F 42 33 7F A2 AE 77 1C 2C 02 E3
 B2 4E A5 59 91 23 D2 EF E1 48 60 24 4D 74 23 E2
 A6 40 4F 5D BD AA 44 B7 E9 1C 88 34 66 34 6D 74
 09 E8 AC 1F 66 93 24 BA E1 F2 99 91 4A A9 4B C4
 E8 EE C8 D3 17 71 83 5B C2 D4 AC 0D 7A 3A A1 58
 27 9F FB B3 BA 7D E2 98 98 7A 92 4F CB D4 15 8E
 6C 96 D6 EC 4B 4A 34 F8 40 4C D1 D5 79 29 E7 76
 41 89 9D 61 0B C0 4F 8E 05 80 10 2C 87 E3 F9 EE
 A4 00 E8 0E 22 19 B6 63 BF 61 C5 52 D2 3D 27 B6
 AE E0 95 4A F4 19 5D 0C 62 68 AC 8C 42 63 55 59
 C6 D1 2B 3E 1B 80 85 FC 98 B2 D4 51 16 13 1B 87
 A6 6A 4B 37 6F 62 BA 2A F6 F1 BA 1A 85 7D 3F 77
 71 11 14 5C A7 9F 2B 17 83 B0 A7 EE D0 D5 91 83
 E7 90 48 E6 94 44 FC 68 F5 3B 88 48 85 F3 C2 60
 E3 56 57 ED C6 8D B1 BD 36 7C B4 C4 D3 DF D9 13
 1B A4 3A A3 A5 6B CF B5 8C BB 2C FC D4 8F 58 38
 6C 73 E9 44 28 73 46 F1 26 2E CD E9 AC D2 76 FC
 88 E7 6C 06 D3 FD D5 4D E5 67 D0 E0 87 17 D2 15
 C0 CE 6F 83 49 C7 A4 99 B9 13 AB CE C7 46 B2 1D
 62 B6 B0 64 1C AE 17 79 B4 4E BF 91 6A AA CD 44
 51 2A 42 75 27 60 36 E4 52 F5 E5 24 EC B8 EB 8D
 1A D5 AD 38 03 94 1D 81 08 F1 78 91 BD AB 90 A0
 33 67 55 4D 4A C7 93 22 93 85 5B 7D 93 D7 AB 1F
 8F 3E 4B 6F CB 34 F4 59 E0 14 47 AF 05 2A 38 32
 F6 0C 26 1F 71 61 99 70 79 BB 16 20 DD C1 93 AE
 C8 AF E4 D3 AA 3F 57 22 54 A7 53 42 FB 47 5D C8
 E0 79 20 DD 8C 5C F3 5C C5 69 EC 4A 0A E1 A6 19
 55 63 DA 47 FE 3D 0D 45 5F B4 B0 30 E4 D1 0B 9B
 94 66 91 08 F6 89 90 D6 B0 76 EB AC 41 34 0A EC
 DB A1 2D BC DF E5 01 FE B1 11 1D E4 26 A0 AC 38
 6A 9B 77 66 88 D5 A8 BC 77 11 79 9E E3 53 D5 6B
 40 17 B8 E2 A7 39 9B 2E 80 80 1E E8 E0 AE 14 42
 7C B1 52 40 BC 4D 77 03 A3 31 4B 57 D9 73 1B 01
 D9 54 63 36 27 3A 95 D6 85 85 6C 31 96 27 3F 0D
 BA 2E 65 51 43 D3 FE F8 4F 6B 78 A5 D0 79 CD 14
 C6 EE D0 15 24 6F 3F 36 66 D0 C6 77 EF F4 9F 88
 25 CF 23 B4 AC 69 FB 3D E1 F0 DB BF 6A 76 77 E6
 29 DC 0B E5 C0 93 F8 47 C0 56 40 2C 2E 7C 98 F4
 77 5D 7A F2 FE C3 98 2E AB FB 5F 34 2E D1 BF B0
 CA A3 37 4C A4 68 A8 11 B1 BB 7E 81 D3 52 78 C2
 A6 67 D9 5E 8C BB 4E A8 80 8D 07 B2 A6 3F 44 AC
 9C EE E2 3D 81 00 17 54 1F 40 D6 44 A0 99 1B 6F
 ED 44 1D 40 D7 3C 5A B9 2E F9 8B 47 DA A5 12 D2
 EE 9E 23 1D B3 EA E2 4A 51 44 5C 05 5E 4C E4 DA
 92 18 E7 B5 F3 B9 9E 1D 5A 6C 51 B4 11 4A 82 DC
 44 82 74 37 5F 3A 66 B6 2B 62 58 6B 3D 3C C0 DD
 27 D6 37 F1 78 90 0C CE 3A 18 EA FA 5F 70 8E 33
 A0 40 75 90 73 13 97 E8 D7 40 5E 34 23 3F 83 AF
 85 52 22 6F B8 28 38 C1 E9 F6 CF 77 05 28 8B CB
 9D 87 FD 19 EA 85 52 84 D5 53 63 9D 26 2E 69 81
 37 A1 72 41 C8 95 70 E5 A8 F9 FD D9 E7 2A 89 AD
 83 98 FF 92 4C 31 C5 55 40 00 21 05 91 5C 74 A1
 8E 85 C9 9D 74 BA 55 47 C1 61 97 FE 05 76 AC 8D
 2B F9 AD C9 72 32 90 94 FA F8 48 71 4C D2 8F 64
 5C 52 A8 6F B0 33 F5 42 C7 23 63 3E B1 F9 5D AB
 9F 5E D2 A0 8B 8F D8 0E 8E F3 AB 85 5F 0B C2 56
 DF 66 CB E1 DB 1F 6D 40 FD 10 AB 72 19 6D DB B7
 BD 72 16 8B FA 52 CE E0 81 C8 DC FE B3 02 5B 80
 7E 04 15 A0 8C 55 29 EC C3 AD F4 8A DE E8 24 FC
 4D 26 CC D5 B9 C1 F6 F6 1B E1 1D 4B 41 A5 35 DF
 FF 39 F6 EA 87 72 1B 1A 95 0B 60 46 CB 7D EF C9
 32 1C A9 B0 E9 61 03 13 CD 36 19 9C 36 7C 2D 6D
 63 4A 8D 1B F4 80 D1 A2 1A 53 A1 AE CD 8C 14 BA
 65 0E 83 D1 B2 F9 86 52 7A 26 49 26 9E 15 2B 1C
 59 C7 A1 92 D0 6F B7 9B 8D 3C AA A2 80 4C 59 60
 71 D6 28 DC 23 D5 DE C1 CE 4C E8 46 39 79 42 B5
 B9 1E E8 DC 0A 16 74 AA 18 51 46 EF E4 63 96 DA
 77 15 44 69 88 87 9B E3 91 EC 88 55 91 6B 2A 6C
 17 7E 27 3F 0A 3A D3 85 AB C1 31 0D 51 3A A0 AA
 74 AE 4A D7 6C F1 2D EC 4D 9E 52 C9 33 40 52 27
 63 9C 5A E1 77 0F 34 3D 8E ED 87 17 30 4D 48 45
 F1 F6 24 28 02 56 E7 88 E1 76 C1 40 51 63 7F 9A
 81 63 AF AC C9 77 24 1E B7 F6 82 55 31 04 3D 0D
 0B 70 62 73 8A 6B 31 C8 40 44 0E 59 FD C6 A6 0E
 44 BF D5 2F 19 DC 01 98 6E 26 C9 A0 E1 FA 74 DE
 9D FA B7 82 44 61 44 B7 12 86 BD 72 A1 75 A9 AC
 37 CD D0 15 A5 1B 85 53 6E E4 76 C5 A1 7C 89 8D
 C3 B4 50 77 1C AC 7D AB BF C0 9A 7C 48 94 5A 4C
 46 04 95 EC A5 C5 F8 BF 3D FB 3D BC 23 CD EB BF
 98 1D 11 D0 C6 29 DF 92 CE E8 FE 1A 61 FE 7B 40
 EA 03 54 0B 97 4E 2F EE D4 D6 64 EE 49 FA B3 D4
 6A 57 FA 7E D9 A5 6C DB BE 76 8D 45 BD 8F 6F 85
 EE 17 4E 69 CD 6E A5 5E 99 FC 69 74 6E 50 D3 AB
 B4 38 E5 DE E8 7E 58 93 B5 E3 84 47 AD 94 CB 86
 84 45 6B A7 A1 31 5E 1A BF 29 94 02 E1 97 F4 33
 93 FD BD B7 8A 61 E3 C9 FC 3B 4D 0E BE B8 1B ED
 DE 8A 77 1A 7A D6 1D 41 92 B8 91 4A 51 FF 37 CC
 D3 2F 51 B4 AA 79 DF A5 25 20 A5 D0 31 FA 5F 0D
 1B BA 1E 32 9B 04 DB 33 FF 7A FF F0 5D F9 61 58
 91 6A D5 0E 83 AD 51 62 36 0C 58 40 3F 11 61 7B
 63 99 46 95 87 8B C4 67 0F 34 0E 6D 1E DD 40 72
 DB 19 90 10 30 FD 89 D4 51 1D 7C 05 DE 86 D3 A3
 96 21 05 1E E1 DD BE C9 A6 E4 1A 38 57 18 BF A3
 47 3F 75 1F C7 97 CD 47 D9 CE A4 03 47 B4 70 EA
 17 3D 66 4B 09 34 8F 32 A2 13 D5 7F 02 65 DC 2D
 EF C1 B1 19 64 5F A5 9B CA BF 04 77 37 EE D0 FA
 FE 30 2E BD EA 9C 7A 08 36 18 3C 08 1D 61 0F 07
 EC 57 6C BE AD 9D 62 4F 31 0D 7F DA 6C 86 D7 79
 31 83 27 0C A8 97 A8 B1 F2 10 A8 E2 44 66 61 D6
 97 0F F0 4E 5F E8 D0 8B 15 95 A9 D1 E9 CC 22 FF
 30 35 F8 CC 08 8E B8 BD 82 EC 45 78 8D 8E 86 1D
 6F C0 25 D1 40 58 04 B5 C1 78 7A 78 99 CD 28 CD
 CB E1 A3 D1 86 E9 C5 80 E7 8F F8 E0 F1 26 25 8A
 6B 44 4E 29 11 19 2F A3 C3 B0 4D 0D 1B F1 41 E2
 3A 37 3B 31 57 B5 04 BA B5 BC A3 A1 7B B4 AE 8C
 67 0C FF FE E5 19 C1 98 DD D6 34 3F 82 82 F0 1C
 0A D6 BA FC 8C CC F7 1D 23 B3 DA 71 73 ED F5 07
 12 80 B8 78 54 A8 74 5F 70 A3 15 4A 2D 64 1A 51
 21 09 B7 03 7A 88 77 C6 D7 86 31 B6 2A 1F 6E 45
 5E C7 6C F8 ED 11 77 34 84 CE A6 49 F6 D6 B0 5F
 14 A4 CC E1 42 3E DA A8 80 CC BC C4 87 0A E8 5C
 D0 49 F9 D9 14 02 DA 07 35 DC A7 B5 AE 6B 84 CB
 E8 90 7C 4C C9 B6 F6 5C 73 E4 53 CE 28 D1 CC E4
 02 57 F6 DC 5B E5 51 A6 34 EC F8 FB 7B 3F 7F C6
 0A 0D 40 32 19 E3 15 07 A8 0B EE E8 61 73 5E A3
 5D 04 21 80 64 57 DD 70 32 A6 84 50 46 63 98 54
 55 07 2F 8F D5 C8 C5 A7 49 B9 C4 AB 3F 2D 0C F0
 6C 80 D4 7B D1 00 9A B9 EC 31 51 30 58 D5 68 9C
 91 07 72 F1 2C 49 1F 45 DD 62 69 F4 C0 B8 C6 8C
 53 0E 7A D3 FA FC 9F AE CF B4 19 59 94 2B 6D 45
 45 31 74 A5 0F FA 78 80 5D 8F 7A 9B C7 7A E9 EC
 D7 B8 05 B8 66 72 7E 7E 70 46 76 E9 80 53 4C 97
 CE C2 BF 66 C9 15 81 4D 5C EC 8C 81 FB F0 B7 39
 20 05 D6 C0 B5 40 08 BD E7 E7 DF 2E CF 22 15 62
 AD 1E F4 4B BF 05 E1 5A 7E 08 8F D8 82 26 85 2D
 CB 01 49 8F 63 18 66 D7 AF C4 EF 61 5D F4 F4 D0
 C0 FC 1F 41 F2 63 80 95 A3 B0 75 4D EF 60 2D 2D
 AD E3 D6 80 D0 CB E3 56 93 55 54 57 DD 41 12 0F
 1D 2C 76 77 05 9F 67 9E D2 E7 EE 74 2B D0 2F 28
 BA 99 36 AB FC 28 F5 9D C3 B6 37 7A D8 C9 9E 2C
 07 EA 84 5A D4 27 F3 09 02 59 B8 BD 43 81 EB D4
 C8 57 F7 3E FD 43 F5 4B CA 97 AF 25 63 E9 49 6C
 EC 05 EB BD 5C F8 44 F2 0E DA 3F 3D 58 24 5D A7
 6B AE D3 BE A1 6B E3 28 BC F5 40 D7 B7 E9 27 A3
 8C FB 69 C8 1F 76 5C C7 D3 71 F2 E3 91 DF 3D 40
 FD BA 5D CC 3D 0D BC 0E C2 70 44 63 5A 61 7E F7
 50 90 8B 72 AF 7E 57 84 EB F3 EC 0A F8 6D B8 0A
 39 CD 8F 90 5D E4 F1 7F B7 D0 8D C0 AA 2F 55 1F
 4D B3 61 F4 A8 91 7C B1 82 32 7B 72 C5 FE 93 26
 43 B0 9C 0D 09 21 24 27 CB F6 69 D0 DE 3C FD C8
 53 8F 88 72 25 3C 65 5B E9 02 17 31 63 A4 B5 19
 5A 79 6A 56 1A 3D D3 8E 24 1C 1D C2 FE 86 13 D2
 97 94 8A 48 51 EE D4 19 54 5D EC 58 D5 F4 54 46
 1C F4 5D 96 6B B0 FB 20 D5 9E 97 E7 59 4E E5 88
 E8 09 54 2E C4 2E 39 BC 23 6B D8 ED D9 3E C2 FD
 05 6D 97 0E 0F 61 45 86 60 B1 C3 D7 93 5D F9 31
 06 E0 2A D6 D7 07 CE A3 21 B2 C0 06 48 86 EA 31
 F4 CE F3 46 59 00 64 5A F2 F7 B9 DE 2C 15 68 D1
 6C 0E DF D7 16 3F 08 77 C1 5E 6E 57 8D E7 77 E3
 E9 32 C3 EC AA 32 31 5C DA 88 28 82 81 77 4F B6
 AE 36 26 0F F0 49 F2 DB 60 CE EE 75 B2 AA 6F BD
 4F D0 CC 18 70 D9 31 E6 63 D2 D5 DF 7A 1B 1F 00
 AC 69 9D 36 53 4F 6A 1F E7 70 4B 63 60 91 65 71
 DD 56 64 8E 90 44 4E 82 A3 4A 81 DE 49 73 7A B7
 41 94 EC B9 B5 78 B5 E4 BF 86 8A 20 30 9D 00 48
 1F 20 61 AF 5B 91 BF 6D 8C 61 D3 B5 FA 2D 17 E8
 BE F9 23 FE 91 0C 77 3F 28 10 9A 7E AE CB 2C 8B
 AA CC 7F B9 1F 95 0D 32 42 26 D8 DA 0E 8A 8C 08
 5C CA 4E BE A2 04 BA 7F 89 B6 8F 00 2F B4 86 EC
 73 72 EB 11 79 B6 AC 66 08 EB FC FC 00 A9 EE 8C
 F4 8C A4 5C 1A 00 20 B3 CD F8 0B 34 47 30 81 3E
 BD 66 7A 63 9D 2D 7A 92 2B 92 D4 8E 71 CD 8A 30
 64 2C 45 1F 5B DA 2D 72 A4 42 3D 49 B3 18 27 82
 6A 8C C4 F5 3B 73 79 74 36 2F 87 4C FB 2D 54 B0
 C0 0C EC D0 D4 B5 56 A0 A6 20 FF 51 49 7C 0E 62
 DD E9 DE 5B A8 9F C5 74 DB 81 98 E8 99 40 20 CB
 E3 C7 13 04 62 D7 69 A9 5C 41 54 A9 16 68 13 A6
 10 C9 4A 13 07 3E 7B C0 0D AC 9A 53 27 97 17 0E
 49 68 B1 89 AD 50 A3 9A F4 89 63 27 DA A2 CD 0E
 A8 EE 66 42 E3 69 1C 8C F8 C9 AA 63 71 E4 6B 51
 2A CB 5F 67 B1 AC E7 24 9F 64 68 DC 70 02 0B 5F
 03 E2 B0 37 3E AE 7A 34 57 E7 30 F6 FA C1 00 57
 3B 54 C7 78 D1 8C 00 80 45 C4 66 90 DF 2D FA DA
 BA AA F1 D9 66 32 CB D5 69 C9 15 EB 26 C6 A8 09
 14 35 73 F6 D1 C9 23 7A F4 AB 8E F1 9B 7E 03 0A
 8D 54 75 47 24 F9 40 D1 46 30 E4 5C F0 7A 04 BA
 A1 2B 7C 6C 40 C3 14 46 72 75 85 60 ED B6 74 72
 46 D8 44 4F 89 2F 41 E8 6A 73 89 F5 E7 00 FD 15
 50 6B 1A F1 E0 96 CC 8A 96 96 62 1A D7 7B 8C 0D
 D6 51 DB 4C 0E EC 74 82 E3 A9 90 62 93 44 57 14
 86 F8 EB B6 D8 06 EA FF 86 FF E9 90 CD 29 9E 5E
 AD 2A B6 4F 73 57 90 C4 2C 19 93 3C 81 0D 0C AD
 71 AB A1 69 8E AB F4 58 72 31 CC A0 D3 3D 05 62
 A2 22 84 FF C6 E1 98 34 49 A7 72 E8 4D BC 8A CF
 57 1F 9F 13 F6 57 EB 56 20 2F 6B 6C 0A 3D 2F EB
 1B DC 96 43 C4 6A C9 07 F0 AF 7A 00 AF BC 51 9B
 12 59 57 5D 28 10 BD 6D 7E B5 9F 47 C6 37 C6 0A
 1E B1 95 D1 40 16 30 84 AE 8C 38 84 CE 90 A9 0B
 AD 22 A5 C2 AA 2F 08 07 93 82 59 CE 82 A0 C9 0D
 9C D7 D7 5A 88 43 24 E8 5A EB 77 58 5C 29 E0 26
 D9 5D B1 FF DF 0E D9 DD 7C 56 6A 45 B8 62 49 38
 BD 4C 9D C2 F1 1E AD 08 BD F4 EA 29 B3 B2 42 4C
 44 CF 74 E6 EB FA D3 1F 43 D2 47 7D C3 1F 05 D0
 64 EF AD BC 7A B1 A2 F5 A2 5A 85 D6 E5 E6 63 2C
 97 58 3A 82 28 77 56 88 DD D9 7B 15 52 A2 F4 BC
 3B 50 92 0C 43 3D 16 E0 6A 86 0B 1B 14 61 CF 4A
 34 E6 E4 FA 7A F5 14 D1 96 68 F1 F2 8D D8 CE 98
 A6 14 75 61 9C E0 D6 AF 99 B7 BE 38 54 06 72 71
 46 8C 16 24 15 B0 14 E3 16 82 40 12 BD 4F 65 68
 83 E4 3F D5 5F 2C BF 73 8F 16 E7 2E 32 0E BE 4C
 54 19 1F 25 A2 92 A9 ED D2 7E F6 05 67 2A 18 F8
 94 12 23 AC 74 EF 48 5E 61 FC 51 47 B2 AD C1 46
 B0 CA 25 9B B1 3F 0D F7 BC ED 8B 8C C4 39 BE 29
 1F 65 84 7D B0 A8 9A 57 D8 0F 7E C6 25 7E AD 7B
 8E ED EF A3 A6 2E 4B 04 10 7F 70 F2 6C BB DD 36
 5A C8 52 6C 6C D5 A0 39 E3 18 18 96 BA 5A 93 51
 CC C6 16 F5 3E 70 1C 97 AD 77 3A 49 F4 27 F1 BC
 4C CD 30 99 B1 BD FA E2 49 D6 85 01 7F 6D C3 0F
 87 07 78 6E E7 0A 9D C3 17 73 50 47 43 08 3E 2B
 32 2A 65 78 6C B2 0F 3F 40 E9 55 99 9A E1 CC 42
 52 DF D6 BE 9C DD 8B AE BB BB F1 5F 5F C7 E5 F9
 88 65 CA 3E E8 C9 54 FB E3 F7 6F 84 41 C9 3A A0
 1C 3E ED 12 6E 5F 9D 95 36 C0 2E 3D 06 0E 42 51
 4C 6B 86 CC 95 94 9C 23 E6 4B 02 D9 1D 41 E7 94
 9A 63 00 1F DA 30 E9 35 14 84 47 AC 5F A0 20 82
 F8 CF 19 16 BA 64 FE 3C 02 6F 98 FE 88 82 05 87
 D8 47 8F 8F 00 F7 C4 78 B2 6A B8 C2 AA DE 32 37
 DF B3 38 98 BB 95 C4 50 BD 5A AC 7E DC FC C1 97
 CA B8 95 20 A8 21 80 50 69 BD B6 35 30 6B B7 01
 54 16 94 CC 2C E0 5E E6 48 8C 8D 40 60 82 3D AB
 28 3E 65 39 74 61 F1 80 39 01 69 DD F0 1E 70 81
 F4 E0 5A C5 0F FD 50 FA 7E A0 17 1D 75 1B 91 E8
 6A D9 37 0B E5 52 5C 79 D8 9A 5F C5 E7 FE 48 EB
 34 BB 48 C8 25 30 0F 25 2B 1B 84 73 21 40 D5 8D
 17 C0 A2 0C 8F EB 0F BA C8 4B 75 23 EF A9 4B 86
 AA 63 2D 16 5D AF 28 D6 EB FB 6F 00 59 10 90 E7
 0C DC CE C6 D6 10 05 AC 01 DF 43 7F 93 BD 4F D2
 A2 3F 0B 63 F0 EE 7F 06 42 D2 21 6B 39 AB 0E 52
 68 BC DB 91 EC A2 1A 18 41 FA 77 3D 6D 46 0F 4D
 4B AC 86 59 2A 51 8C A5 E3 28 37 F1 80 0F 45 63
 A1 E9 E8 31 70 4B E2 28 F3 00 AD 93 01 EA 75 D1
 BC E3 7C 4F 08 E8 1E C9 E2 25 8F 73 D4 28 22 5E
 A8 A4 6B 4C 4C C2 8B CF 1E B3 BC E3 C1 F5 D8 B1
 D0 56 14 78 5E E5 09 0D D9 9C 04 B6 10 3C 15 09
 5B FF 49 AC D1 33 05 DB 1E 5B 55 08 3A AB 42 A3
 5D A6 ED 51 6C AD 89 51 39 C9 0A 77 A4 C2 B7 CC
 23 56 32 4A 84 1D 5E EF 66 D5 65 6D D4 FA 38 80
 78 8E FF E7 64 7C 18 A6 0D BD A9 31 5D C8 92 D6
 E8 AE D4 52 A3 A0 14 46 88 6C 03 5A 81 8F 0F 6D
 A1 14 96 12 A9 88 1E EF AD EE 7C A0 4F 59 78 75
 A0 75 43 52 1F 9A EB 59 A0 14 ED 6E B4 DF 19 7D
 A8 F3 1B 05 2D E6 55 4E 0D 6A 36 95 75 A9 66 28
 93 F3 72 D8 D9 5B 0C 55 B7 13 66 AE E8 0C AD F4
 05 B2 17 F2 46 8B 7C C6 4B 4C 02 62 2B 9C DF 1A
 1A 45 87 EB 84 AB 39 34 2D 07 D9 FA B9 6E F3 A9
 A3 BA 92 2A 4B 4D 31 79 70 7B 45 54 BC 33 E8 6B
 E0 B6 20 DD BA C2 67 75 B0 03 FF 34 D9 02 AE E1
 F4 CA A5 55 BD 14 A1 E3 7A D0 C3 B4 52 F5 12 0C
 27 31 47 79 2B FD 39 33 3A D5 5D C4 00 2D F1 9A
 DA D2 B4 2D 57 FF A0 6A 1C 6D 7B B9 99 50 17 16
 49 41 A6 1B 1F CA 4B 19 99 C5 8C 37 28 8E 8E 6F
 22 55 C6 8C 5B 9B 3D 2C C6 D2 38 DD 59 C4 11 D7
 1A 74 21 7E AF 96 4B AA 69 C7 D7 C4 34 A6 0F 61
 33 0A F1 95 3E 79 48 2A B2 DE 4C FC 9F C0 16 94
 A2 11 33 50 03 6D B1 2D 94 1F F9 9D A7 34 7D 40
 EA 4D 7E 40 71 82 21 E7 CB EE 18 94 F2 A9 FB 36
 83 41 80 C3 98 99 96 A4 D2 66 68 46 57 01 A3 21
* End 43156873 1599760754