* LTspice Encrypted File
* 
* This encrypted file has been supplied by a 3rd
* party vendor that does not wish to publicize
* the technology used to implement this library.
* 
* Permission is granted to use this file for
* simulations but not to reverse engineer its
* contents.
* 
* Begin:
 5A 13 EE 67 D0 E7 8A 04 08 91 FC 20 9F BB D1 08
 40 90 96 61 4F 1F B8 FC FE 5A 18 BD 3E 0D A5 59
 0C AE C9 61 1E 27 FB 73 B3 8A 97 FE EB 92 CD 35
 5C B5 83 36 FC CD FD 5F AA 27 C6 6A 3B 6A CF DA
 68 8D D8 D7 A4 21 5A 3F 49 52 0B EA 2B 0D 74 CD
 1C E9 67 1B 3C 87 B5 48 1D 2C 24 03 B4 1F 4F B4
 8C 34 92 E8 64 45 3B 45 0A 66 C0 26 4C C3 82 2A
 75 F1 8D 9F F4 55 F0 6D 36 88 2C CC D5 EC 9D 36
 73 8B 76 11 AA 7D 15 A3 45 25 13 42 F9 68 87 9E
 30 8B B1 E9 5D 8B 98 03 96 BE B8 2B 88 89 9E CD
 62 BD 75 D7 F8 49 1A 7D FB DC E2 0A 74 8B 24 CB
 57 09 63 25 F4 2C 96 B0 9A 03 32 0B 13 43 A0 08
 0B 54 F2 1A DA 10 25 AC CE E7 5C 82 9C 84 FD FE
 7F F0 61 D4 7E AC A4 3C AD 63 C9 69 21 07 EB 9E
 F5 41 C2 2E D0 E5 16 6D 49 86 FD B1 9F AC 96 B5
 44 D1 39 5E 33 61 2D D9 07 2D E3 49 7C 03 60 DB
 B2 80 20 9E 56 95 82 63 19 83 84 23 7E 91 1B 17
 30 1A D8 02 78 3C D3 3A 2D B2 8B 5C 53 F5 8C 8C
 9F E3 AA 97 B7 8D CB E1 70 97 3E 31 4F 53 35 4A
 D6 7F CB 5C 27 52 B7 98 EF 35 A3 25 E5 D8 A1 6A
 62 69 88 2F 3F 54 54 AF A9 EA DF 79 F9 9A 9E CD
 C1 3B 80 BB 36 72 28 F7 E1 73 53 2B E9 FC A1 DD
 21 AE 8B 44 00 0F 0D C1 C7 A6 60 82 45 2E 58 74
 01 70 05 96 FE 2A AB 16 4C FC 02 60 F2 6A 56 A1
 91 88 DB 4F AA EC D7 E6 99 37 D3 8B EA 1D C5 5C
 F4 44 00 E1 C1 7B CE BC 18 7E D7 B5 9E A7 4D 2A
 18 29 D3 41 74 C3 AB A3 AA 0C AE 74 00 2C E4 77
 84 5E BF 83 77 8B 1B CF B0 40 47 63 82 75 61 B6
 5D 78 8B 10 D0 F2 BB 72 96 B3 DE 69 01 9E FE EB
 FE D2 80 C4 C4 D8 41 D1 41 E7 FE 95 75 F4 1C 47
 47 D2 45 D6 99 EC 95 91 13 4D 16 47 4D 8C 50 16
 B3 4F 26 54 34 C5 EB DE 28 B4 A4 69 F1 26 72 27
 B3 2F 60 C9 9F E8 A2 71 7A 8A 05 4E 90 65 CF C0
 EB 7B B5 17 F1 46 01 B7 FF A5 1C DD B2 DF 4E C5
 63 22 E9 53 FC 35 61 DF E6 AA 46 9B B5 CB 84 F9
 74 BC 32 46 A8 3C 1F 5E 46 AB 61 A1 2D C7 1A 5F
 56 D0 36 86 91 3E 52 6C 6A 59 E5 CE 48 95 4C BB
 7B 10 28 61 30 AB 31 60 8F B8 75 56 1E 90 0F B4
 89 34 BC 51 25 35 CA D7 B4 0A 6C DE 38 D9 56 7D
 C0 4E A2 CC 41 09 EE EC B3 F4 EC 73 89 CA C6 2C
 E4 A2 1E BD BA 23 49 84 AF BF F6 BD E0 B9 23 F4
 45 48 06 0E D1 9E 06 14 23 90 90 22 DC 8A 62 83
 10 17 11 B4 9B 12 BE 21 4E B7 18 1F 74 E7 4E 4E
 EC 35 0C 02 9E EC D5 AE 01 3B F0 F2 C2 C7 FF 69
 44 4D E8 67 E7 05 A2 5A 5A 79 C2 BB 61 BF 01 9F
 21 EA 0B 39 A7 6A 24 6C B0 B7 FA F0 05 1A C4 B1
 92 82 A5 47 73 50 52 C8 1A FE 4C 7C 30 D2 E1 E7
 77 2A B9 99 02 C4 76 77 41 80 4A 8A BA 66 9F 24
 54 8D 2A AA CA CD 2B 63 E9 3B 71 DF 4A AA 46 9D
 A5 21 41 07 66 1B 58 2B 82 5C D4 1D A3 FB 75 98
 B6 FC 17 09 AA 05 2D 95 66 F5 6B 0A 86 E6 53 41
 BC E7 1B 36 67 94 2D D4 E9 FB 62 53 F4 79 A0 76
 DD 49 B3 7A ED 17 E7 EA D1 50 D4 BB 51 B7 A5 8F
 09 DD E8 F5 6C 1C E0 03 BB 45 4D 9E 31 96 2F 22
 59 19 A9 43 C2 B6 E0 B2 35 26 92 38 E2 B0 A4 AF
 A0 96 C6 05 14 F5 AF 73 7D 46 D9 FB 5B CA EE 44
 BC 19 52 60 08 52 23 19 91 CC CC D5 CB 50 94 CD
 39 30 93 AC FC B5 F1 3E 7A FE BC A6 E5 C2 36 C0
 DB 9A C3 52 45 B8 08 26 E1 E7 83 0A 49 53 BD AE
 CA C3 5E AB 8E D8 DF F2 01 D2 60 58 C1 88 20 D3
 26 64 27 E5 AD C1 4F D4 55 CD 36 67 40 C5 E2 77
 86 3F 2E 51 B5 2B 74 3E 1C EB 38 98 B1 2C 5E 89
 2D 29 A5 50 A9 A7 FB 30 48 0E 3B 7A E5 BD 35 24
 C5 6C C9 62 F8 97 4D 1E D9 EF 91 3A EC 7E 20 94
 67 95 4A 79 C1 73 84 C1 E6 3B 68 02 9E E4 0B A9
 98 23 9C C4 8E E5 35 5E 77 C2 69 F0 1A D4 D1 D2
 22 94 DA EB 9F 78 D7 22 37 DA B9 F2 F8 23 32 36
 62 1B 61 D8 0A 17 85 AD 78 66 06 BA F7 8B D0 B6
 0B 3F 6C 89 70 A0 EE B3 B0 12 E9 01 B5 E3 9B 70
 2C 4D 4F 0B 2A E3 66 8E 5B 67 2D 89 1B F4 72 08
 B0 65 C3 83 D6 E0 B3 AE 4C 0B DB AB 8D C2 3A 3F
 78 58 E9 13 19 FC A2 3A 71 28 E5 DA F6 98 FF 16
 40 01 65 4A 87 BB 88 C0 89 CC 13 5B 43 71 72 C1
 55 30 D9 5A A3 AF 89 CA 72 40 E4 1E 2B 88 FF C8
 0F 2D 8A FF 4B C3 99 3E B2 21 46 95 7D 01 0E 48
 3F 24 61 5C B2 59 A3 1A 2B 09 B3 52 9A 69 5C 3A
 2C B3 4D 80 29 D5 DF 5F D2 62 5C 78 AB 8E 51 54
 F1 47 DD F2 25 67 A8 8D 19 68 6C 31 C1 20 0E CF
 72 02 3C B4 F2 11 43 B5 AF 4A 4F 41 FD FD 90 6E
 03 C5 54 72 C3 2B F9 D0 70 7B B6 CA AA F0 E6 02
 19 C6 77 F1 29 5D 0C 01 72 58 A9 00 24 7D 70 62
 9F 39 EB 7C D2 12 CC 63 2D 5F 32 32 6C 0E EC 0F
 8A 73 3B B8 83 34 C3 48 75 8B C8 60 49 59 13 7E
 49 E2 B5 32 A0 FE C2 EE D0 28 7E BC BC B3 63 F6
 84 97 2A 37 9A 5B 89 C9 A7 4B 2C 6F B2 62 7A 4D
 11 EA EC 05 0C FB 22 B1 22 F5 0D 45 37 FA 1A EC
 0E DE 58 7D D0 EB B6 AE AA 49 09 1B 25 5B 06 73
 ED BE AE 41 00 F0 C0 AE E2 CE 05 91 52 6B 03 7A
 1B 62 EC E3 79 3E CF 55 07 64 30 BE 52 A5 BB 7D
 E7 DA 98 0F DD 3C 28 DE 68 D6 62 F7 DE DA 55 15
 03 00 6C 75 0A B8 AD 87 D9 B7 23 73 56 8B 6C A3
 C5 AD 99 01 1D D1 A0 8F AE C0 4D E4 97 4E CA B2
 92 8F D4 03 B1 13 DD 81 62 5E 37 91 EA 18 41 64
 66 08 04 C0 5E B8 AA 42 59 65 60 B9 A8 F9 1F 5F
 0C CF CA 17 59 09 7F 0C E3 7A 97 13 72 06 03 32
 BA 02 D9 69 06 A8 31 D3 F6 AC F6 83 CD 14 B2 00
 3E BF 72 07 38 B0 F0 0E FD 71 B3 22 6B 86 38 A7
 79 62 3D F1 F3 57 2A 63 21 67 AA 62 C0 5F 17 61
 88 84 A3 C3 09 65 28 0A 67 F7 99 4E C9 74 86 E6
 F6 1A 46 5A 19 CE 61 00 3F A4 58 0B BC 81 DB C4
 03 28 BF 94 BD 06 F7 DA 2B E4 17 19 FB F3 A3 B0
 68 66 BF 76 C8 0B 95 65 95 78 03 F3 38 8D C4 D8
 C7 E2 B9 74 78 50 FE 78 97 03 25 69 EC 92 9D 14
 9A D5 D8 7C 82 24 F6 A3 93 AB D1 FF F5 2D 9B 30
 6F 55 E1 F5 7A B3 6B E0 F8 13 89 DE 81 4C D8 79
 7F 8A 67 1F A1 5B 89 01 5B 4D 37 AD CF 18 DB 71
 C8 EE D3 33 B8 4D 76 08 0D D7 CE F3 49 9B 62 33
 CE 67 15 CF 23 01 89 C0 C5 0E 13 A5 90 6D 0A 6C
 DF C7 C1 A1 EC 63 08 8B 08 CD BC F4 5E 6C 88 3E
 C8 E4 CC 19 98 C6 82 DA E8 12 1C C4 33 6E 55 C3
 99 D5 4D CE 9F 94 94 D2 46 81 DF 65 ED 65 82 56
 98 40 6B 78 59 24 36 8B 7A 8F 8C 7D 7E 30 57 41
 86 DE 0A B0 FD 0B 71 2E 77 14 DF 69 DF 76 0E C6
 1C A0 83 34 B0 F7 E3 72 3F 33 68 62 3D F5 8D D0
 CD 61 80 75 E6 93 E8 26 83 5E E3 31 23 9A 28 6A
 44 0E DA B7 35 A3 CB 8D 09 00 70 2D 3B 26 20 B3
 99 49 2A 93 70 94 69 7D 40 C5 F8 E5 D1 85 27 8C
 F1 9A B5 6C 16 7F 02 A5 60 BF 8E 4C 60 B5 CB BD
 BB 70 76 D9 81 94 1A 20 4A 36 28 B9 71 A3 7A 0E
 85 52 07 0C F8 93 FF F8 93 05 06 36 3E 38 88 D5
 3C 58 32 D7 60 01 4C 40 4C B6 E8 10 22 D9 95 0F
 85 C3 C4 FD 36 E0 2D 11 C7 4E 9C 86 79 EB 9D CB
 A4 9F E8 10 8C DF 28 88 43 67 4E FC 3C C1 BF EC
 04 9A 78 90 AB 23 17 76 B3 88 82 86 67 BA 52 13
 78 FB CF 76 3D 59 63 DA 72 0E E3 D2 D2 AA 2C C9
 B7 66 39 0A A8 6B A8 4B 19 3B 60 B8 FD 50 C4 2B
 0C 5A 17 B2 23 42 EE E0 2B 75 7F 6B 78 8B BF 10
 49 83 CA 73 80 D6 AC D4 B5 47 07 A4 EE 37 FC 1E
 81 EB 8B 11 F5 D1 5A D2 4E 66 0A 29 0A CE 88 8F
 C9 58 9F 68 12 13 C3 96 98 5A E7 86 AB 25 DE 70
 EF C9 5E 18 CE 09 B5 75 4D 20 E9 0C CE C1 F2 15
 2C 65 88 51 1D F5 2D 04 F6 71 97 C3 A2 C2 D7 DE
 A1 20 B1 9F 23 8C 33 16 24 0A 0F 7A AE 30 6D 98
 EA 78 0D 11 F0 19 D5 BD 5F D1 80 2F BE ED 48 0C
 2D BB 13 EA 6A 7D 0A 1D EE 7F 71 28 02 12 BE CD
 35 D8 6E 97 DF A7 87 A9 06 FC 85 B6 DA 7F 1C EF
 99 F4 82 B6 3E EE 34 7E 5A E4 FB 13 D8 3B E7 1C
 39 1C 17 46 2F 3E 17 ED D0 DF 76 55 E3 16 87 4B
 D7 D9 82 00 B3 F5 6E 0F B9 2B 5D 6A 78 85 01 07
 EB C3 8C C3 C2 0B 11 F5 2A 34 3D 1D EE 43 53 22
 93 2F BB DC 5F E5 41 07 C8 3A 20 F4 2E F1 66 88
 BF 0C 0B F3 29 D2 7B 6C AB A7 C9 82 43 31 91 7E
 CD DB 7B 1A 04 BF 9A 2A 16 61 B0 72 22 00 3E 01
 0C 17 65 B7 26 2A BD 15 BB 7B 91 B9 B5 90 58 80
 BE 78 D0 6B 1F E1 9D E7 47 1E 37 D1 33 A2 8C CF
 13 9C 11 4E ED 3C D9 2D 3B B6 82 BD 12 21 79 F9
 CC 46 4D 4C 2B 21 4C 8C 42 41 49 BE 54 59 58 E2
 22 BA AD 07 B3 E2 5C 30 0C A4 5D 15 DC 30 0F 14
 6A F9 71 B2 08 A5 11 71 99 00 77 F6 23 57 F5 74
 98 7C F4 11 8C 5E DA 4B E8 5B B5 65 ED B1 3E E4
 B8 FF 69 C2 CD 5C B0 5C 3B FD E4 5D E0 D1 34 1E
 6C 3D 62 89 49 1D E0 E4 3C CD EE BE E3 D9 F9 03
 E6 20 CC BE 32 EE F6 34 07 65 54 6C E7 B0 B8 A2
 AA 75 9D B1 A2 3A 61 CC CB 02 A4 E6 0D 17 AC 05
 F4 23 F5 A3 8A 3B 3D 5E 69 C4 CD 1E 8E 8C 3E A9
 89 C6 EC 99 C4 58 12 65 AE 99 88 42 92 8E 0F 13
 24 F8 4F 0B A5 2D 48 CF DE 6A 2F A4 93 6F B2 DE
 8B A5 05 E9 DC 8A E8 02 DC 2D 1F A6 E3 D0 09 66
 DA 00 7B F5 A1 19 77 94 DB ED 4E 30 95 41 77 8F
 7E CF 24 D1 76 53 19 F3 24 59 43 5F 2E 0D 3C 68
 2E 3D 65 C2 63 D5 9E B8 2D 23 3D 8C 35 0C E4 D0
 9A D5 5A 24 D0 82 76 70 B7 24 6F 5C C5 1B 26 07
 D8 8D D4 FB A7 F0 08 42 44 FC E4 08 8D 16 00 84
 2C 3D BC 4F B6 35 50 57 07 6E 89 74 3C A1 B0 1D
 C6 94 1E F6 65 6C F3 7D 87 EC C2 CA 39 6C 43 54
 07 C0 5F 79 A4 0F F7 85 F1 E5 1D 37 B4 A5 E2 46
 5A D5 96 A7 B9 E6 CA 63 A6 A4 4E 56 8B 62 19 9D
 37 D8 BD F5 1D 80 82 C8 2C F2 12 FC 2E 49 D1 F8
 E6 B2 02 5A F4 63 3B 80 38 26 04 D6 E5 87 CB E3
 DB 8F 46 09 EE A8 5F AB 90 3B E8 97 FD 1C 35 15
 5A CD F4 8A 9B EA AC 8C F6 1A 6B 33 3A 92 E5 13
 30 BE 99 5D 1C FB 2D 1F 87 AC 3B 99 AA 32 21 36
 63 3C 82 06 58 57 C3 E0 6B 5D 7C 44 52 55 60 3F
 6A 4C D8 A6 8D 87 BE 62 AC B0 F9 89 43 72 02 58
 AB 0B AE 0B 2D 43 9F 01 1A A0 A1 FB F9 9A E2 69
 63 6C 4E 82 56 8D 3E 77 5B BA 12 B0 06 55 AC 57
 5A 44 62 BA 95 ED 43 B1 7B 66 CC B4 2E 53 80 12
 ED C8 A5 3F B9 EC BC 21 13 D3 EA 10 D0 1E 75 EA
 CD 6D E3 02 92 53 52 C0 23 98 4B A9 99 65 8C DC
 91 4C 11 03 60 1F 67 44 03 8E C8 7A F4 AF 09 BD
 8A CA F9 09 3C 4A 64 41 E0 95 01 AC 2C 23 A1 85
 30 C2 52 37 D9 3B 7E 6B D8 6F 20 50 EB 55 D1 AB
 9E 76 BF F5 4E 07 B3 5D C0 90 39 E4 47 17 8C 03
 26 87 F0 89 11 9C BF 72 B8 84 79 BE 11 F7 7B 9B
 BF 40 6D 8F 10 E4 83 37 ED 94 AA E8 D2 A5 6D F3
 CB B2 11 E7 29 A6 AC 9D 56 59 E2 C4 C1 F3 82 B2
 60 7F 79 14 7B 34 8F EB 7F A3 53 CA A0 8D 0B EF
 C8 05 78 48 92 54 3C 02 72 14 CF EB 54 A5 C4 B5
 31 89 EA 0B DA 98 E7 6D 6E 48 E6 4F B1 30 44 F0
 EE 1D 4A AC 46 6F 96 D1 0E CF E0 03 8C 64 09 B8
 4A A5 55 6B 1E FA 19 E0 00 56 1B 13 AF B0 85 AC
 81 66 9A 5C 9C 5B CF 6F 0D 00 04 3C 8D 90 96 81
 55 AC 27 A1 A9 68 95 7A A6 94 96 0A 8B 05 B6 B1
 F9 2D 1F 93 35 3D EC CB 5D E7 80 03 44 36 6C 69
 23 BF 2B 0B 59 AA F6 40 32 D4 B2 99 07 22 19 CE
 CD 02 D9 68 AE 2D E2 92 F3 A2 BF EA 79 98 9E CF
 13 CB B7 E4 AD B9 A2 AB 0F 04 E2 33 EF 02 66 55
 ED 29 E9 75 7E 58 0E 8A C2 BB A4 DA E4 58 31 7C
 67 C1 65 32 AE DB AC E2 9F F5 8B 96 A6 F8 D6 A6
 BD 8F 78 A8 BC 39 25 09 EF BC 94 B5 AD 8C 48 C6
 AD BB CF 08 0D 2C D8 5E 58 18 BA ED 58 40 22 5E
 16 41 2D A1 F4 E6 99 D2 5D 2E 53 5C B6 47 F6 28
 38 BF 64 0F BD FA B5 B1 8B 21 B9 D3 F4 E3 A1 AE
 7C 76 0B 4E D2 49 D9 B6 FA 21 DB FC 29 BC 5D B5
 9E 17 DB 6C F3 AF 7A 35 0B E5 D8 DD 32 79 0E 25
 05 51 5B 82 FA F4 FD AF BF 8B B8 E4 43 5C 98 A3
 CB 98 B7 37 C2 F4 BD 23 85 A5 BB 5A 86 E7 8C 9E
 F0 1E 21 AD 8D 42 DD 4B FE 46 14 30 98 42 0E 79
 5F 74 26 04 2A 9C 1F AF 67 7F B8 CA 53 DC 98 CA
 B5 CE 6E 58 B0 72 94 B3 23 15 F7 F8 15 08 60 6C
 BD C8 BF 26 2A 83 7B 40 DD 84 EC 58 92 4F 38 6D
 EE C1 92 0E E4 CB D3 BB B9 D7 FE F8 87 80 AC 14
 98 BC F3 56 74 E3 02 67 C6 B3 02 81 8F 45 10 27
 E0 4E 05 07 1B 96 1C DB 64 41 A8 5D 63 84 1F D7
 89 0D 24 5E B5 F0 FD 5B 70 1A 6A A5 39 F9 5B 84
 03 7A B8 F6 0F B7 F7 C7 56 CF 1D EE 04 35 D8 47
 19 9F 18 A4 60 C0 89 1F 40 39 8E DA 69 F0 58 35
 3D 51 F5 8B 7B 62 9F 17 83 FA 9D 1A 89 54 CE C6
 2D B7 70 EF A8 65 C7 08 B9 A4 D7 A2 0A 1F 8C 35
 F9 3D 20 82 8D CF CD FA FB 80 91 88 C9 42 A8 6F
 42 ED 3A 53 80 CE 93 0F 59 1B F2 5D 8C 52 98 89
 21 E0 46 49 E4 CF A3 E1 5E CC 28 7A 7B 5E 54 EA
 E0 C7 6C EB C8 92 DB 51 3D 1F DB 7C 3D 4F E7 79
 23 9B CB A4 5F 8A A9 B0 5B 03 28 2A 24 07 00 D3
 4C 33 88 C5 E5 A4 6D 57 4C 6C E2 36 ED 80 A8 2A
 FF 0F 5B 19 2A 9C 27 23 E0 48 89 9D 7C C9 62 0B
 B7 B5 B0 BB BF D1 70 EC 0B 0A 7F D9 2B 84 15 2C
 BC 92 7A F5 65 35 EE E5 57 29 16 98 ED 89 1B 61
 C4 6A 88 68 1B 41 5A 11 FF F4 7F F4 3D F4 CF 58
 1C B0 04 87 8D 28 58 F1 58 ED E0 4F A5 73 45 59
 50 F4 73 E7 AA FA 4B 0E 01 D1 CB B0 EA E1 BF E6
 50 27 D5 F3 C0 53 32 78 37 AF 66 85 AA 0E 0E F6
 F6 D1 6E ED D7 8B A8 5B 48 AF 34 8B E9 CE 8C F7
 37 00 CF BF 6D CC 6C 67 15 99 68 84 91 88 C0 99
 BF 6E 3A 78 8E F8 E8 3D D5 B3 6B 7F 80 35 B7 28
 A3 ED BB 1B 63 6E 17 0D 8E 5F 34 89 65 F1 CE 2A
 78 80 3A DC A3 53 80 58 7F E7 3F CB BF 79 61 6A
 B2 06 78 C3 47 92 FD 74 13 D4 BA 94 30 BD 01 CD
 73 F3 05 CC 80 7F 28 2F A8 97 A9 4C 47 9A 85 6A
 77 0B 26 7B 3B 53 A9 44 7D A5 A7 F5 D9 02 99 C6
 45 6A A5 CC 10 94 96 90 B7 F4 97 54 A0 E9 17 AE
 DF 48 64 75 70 39 E1 38 59 09 AA 70 43 B3 2F 54
 DE 7F C9 9E 2E A5 E5 F5 70 53 B0 C4 F3 C0 73 BF
 31 E6 4B 5C A9 8C CF A4 03 53 CF A9 8E 26 50 E2
 DB 3E 19 84 25 F4 60 CE 1B 07 17 64 A7 38 5F C1
 EC 2D A1 65 EE A4 FB 72 39 34 18 64 06 A2 81 0C
 4E 4F 80 52 8F 47 00 6E C3 37 88 79 0E 50 EF AE
 35 E9 25 B3 BB 44 D3 04 82 52 98 21 DC 93 F9 23
 88 59 50 EC 1A A8 11 A2 62 21 A5 30 D4 DF 85 84
 5D DF 56 DD 87 15 37 F4 96 07 D6 62 82 B4 12 D5
 C5 AA B9 A7 49 93 89 C1 F1 CF 8C 0E 82 5B 69 04
 DB 85 54 69 12 27 AD F8 F2 1F 1E 2E AB 1C 06 74
 7B 5B B7 00 67 22 A4 1F C0 E7 99 29 D7 82 DB 74
 1F CE 91 2E AE 92 8C F5 12 51 CC 58 E6 F9 61 8A
 F0 90 CC D6 9D 75 FF BC 5E C4 2C 69 85 DD 12 81
 8A 25 22 35 9A BC FB E4 CD C3 49 D5 9C DF E0 70
 9C 17 16 9E F1 4F 27 C0 E7 22 CF A4 68 2A A1 1A
 DA 50 7A 63 65 71 76 BF EE 58 91 E9 D6 07 12 B1
 6B 57 21 EC 20 BF FE 6C 8F CA 99 B7 84 32 1C 1A
 94 64 C8 BE 50 8E 63 EE 29 BD 7A 80 96 C4 89 14
 7E 93 A3 37 57 47 AA 04 4E 1D 95 B8 1E E9 3A C8
 04 8D 00 A2 92 42 6E 87 1E 2C 85 6F DA 3E EA E3
 5D BD 73 53 25 4A DC 47 33 6C B1 41 CB 73 6E 87
 A7 DE 5E 73 1D 89 CE 6C FC 04 FD 8B CA E4 5D 9E
 52 46 99 D8 EF 8A 8F 5D 2C 76 60 CD E3 EC 7F 56
 E6 40 6E 1C AD 77 13 2A FB 3B 5A 47 DE 51 5E 16
 5F 45 86 E8 EC EC 2D 8C 6A D9 45 6B 39 A6 81 6E
 21 48 17 AC 2A 86 91 E1 4D 08 D1 18 D5 E6 A8 1D
 08 B4 67 7D 6F 00 CE EA DF 59 21 09 77 5B BB 70
 6C 9C DD C2 19 0D 62 DE 66 38 29 10 B4 32 58 99
 CE CC 96 F5 7D 39 43 AC 28 48 35 50 2F FA 1E 64
 41 79 69 EE 1D 17 45 1F 4F C6 71 E5 F3 D5 D4 3F
 17 8B E9 2A B0 06 68 9E 7C A7 ED 74 A1 3A 52 DD
 66 B6 5E BB 7A 42 85 50 92 8D FE 5F C4 B9 3B 64
 EB 94 D4 FE 88 DE 2A 46 91 50 B4 7F CE 51 FF 2F
 32 22 02 2C EA 30 2B EC AC CC B9 8D 18 72 8D 48
 06 DF B1 A1 5C 67 12 FC E2 CD 6B 7E F0 88 2E E8
 BB 71 E9 71 F4 70 AF 23 94 3D A1 98 95 62 0C 76
 8A BD 26 E9 6B 0F 7C A3 2A 49 54 E1 E4 74 88 26
 2B 53 65 56 AF 93 9D 80 A0 9E FD 48 36 14 CF 8D
 D0 E4 9E DB 69 4B 84 7D 64 E6 07 27 03 6A 95 54
 DE 66 17 F2 91 88 FB 3E 0E 79 F7 6C 19 7D 34 9A
 47 B9 BD 89 B8 F5 5E BB D4 C0 EB E3 2D 21 A1 6C
 D2 CA C8 6C C9 EA 79 95 F1 26 C6 AE B7 86 10 FF
 01 4B 74 FC 61 F2 30 29 1B 5F 25 4F 08 DE 58 22
 CB 19 F9 AC AC 9D 4A 04 48 2A B5 89 D8 82 05 8F
 E4 24 A0 4C 1F F0 0E 37 31 E9 5E D0 4D 44 1D 22
 D3 C9 E2 C4 96 EC 06 7F 21 15 CA 3E B5 34 71 6D
 1C FE B5 AB 24 1D 1F B5 24 45 F9 9D 06 05 23 5B
 FA 6F C6 90 EE 34 95 38 40 B4 49 B9 EA BF 3E CE
 94 FE D2 36 59 92 49 2D D7 A2 3D BB BE 29 5E 4E
 62 4F E9 2B 4F 71 8C FA 9A 1E 1E 1C CC 21 E2 EE
 0D 35 F4 60 28 A9 00 27 DB 32 C0 E6 2D 06 32 FA
 28 EE 46 01 51 96 EA E1 85 2D A0 E8 60 79 05 D3
 9A F1 F8 21 ED 4C BA 1E BB 27 60 57 76 16 32 E2
 45 E9 8D 5E 21 18 98 83 D0 FC ED A4 55 93 37 F8
 CA 4E 81 5C 43 CD 77 8C 02 93 DB 82 3D 24 57 5F
 1F 1D 5D 31 01 6D 60 D0 CD E8 40 4A 69 6B 93 B9
 C6 78 CB 5F 20 32 D0 6C 20 E4 14 F0 5E 61 C1 BD
 ED AE 7A 97 51 FE 0C 82 45 23 F6 88 B9 7B 6C 7B
 BF AB 9C BB B8 6C C5 7B C2 3E 65 62 EB B1 4D 92
 C5 92 A4 31 0D 39 9E 66 BE C8 C1 19 32 9D B0 67
 8E BD C8 D3 14 77 C2 95 B9 FD CD 4A D4 73 D2 B6
 F4 F0 73 1B 20 3E 84 3B 3D A1 EF 49 60 9E F6 BA
 A5 86 18 8D D5 71 03 27 2A 32 C4 6A 62 BD E8 2B
 41 0D CB 96 B8 E8 87 36 24 8D 01 64 16 D2 65 F6
 D9 F3 34 51 A1 0B 08 95 1E 78 93 34 41 47 D7 3E
 F5 5C A9 C2 77 36 5B 4F 85 CF F2 0C B8 18 35 53
 FD 57 F2 C5 7F 9F B4 0C D2 CE 40 E5 94 98 C4 25
 BD 99 A1 74 AF 13 8F 12 CE E8 1D 7C 79 EB 3F 3B
 21 54 5A A0 78 76 43 3E 36 DF D1 D2 D8 B7 50 DA
 F6 5E D1 F6 11 18 1B 7E E3 DE 65 7E 2D A3 BF C7
 32 14 EC CF E6 E7 46 D1 45 AC 8C EA AF FA ED 76
 9B D8 22 3E 64 66 BE 54 3F D1 00 D4 B2 D7 BF A9
 17 00 2B 1A EC 62 D5 9B 55 37 6B 8D E7 86 4C 9A
 1C 6C F6 0B 55 A8 08 39 18 BF C9 B1 11 04 34 91
 A5 17 C0 37 75 0C 11 B2 AB 33 17 47 E7 C4 9A 4A
 4D E6 B5 3E EA 5C 2E F9 58 F4 05 FB 4D 3A E9 98
 D6 80 CF 99 21 01 74 1E C7 11 D2 C8 44 E7 A0 2B
 8D 31 A0 38 D6 8F 9B 88 97 69 9A 11 38 C3 99 13
 34 E8 8B 7A 0E E1 88 9E 0D D0 12 A8 51 0B 41 0D
 5D 86 28 06 89 48 6E 4C FD 7A D0 20 41 99 78 AE
 27 55 BE A1 A3 E3 4C 97 C4 F4 C5 8C 49 E8 56 A5
 C3 2A 66 B1 EE 57 FA 23 AE AA 7C F7 C2 86 B2 BB
 0D 7D 0D 07 7F F5 3C C9 E7 F9 FC 77 56 32 DB 1C
 E2 1F A6 33 05 45 A7 A7 CF C5 2E 70 BC C6 9B F9
 9A 8E DE DC 97 84 C8 FE 5D 00 4C FC C3 D4 C9 E2
 7F E5 12 43 CE CA 0D 64 5B 1D 1F 9D 5D DF DE 82
 CA D7 33 14 C8 B5 21 42 7D 61 9D 8D 6B 22 B2 6E
 CB BD FF 12 CD CF CB 31 45 B9 BC 29 4E F4 B7 5F
 BE CD 69 8A C2 D1 CB A1 92 EB DA 33 D0 26 3E A2
 FD B5 8D FB D2 80 25 CB 96 55 09 40 33 7D 37 2F
 C6 D1 5C 9D DF 8D 69 CF AE 91 91 EE A7 9B C8 C9
 1B 3D 70 E7 F4 B6 4C 5E 99 0F 0B 3D 2D 36 C3 C0
 67 4B E4 F5 A9 65 4F 99 92 1E 07 1A C7 AE CA F8
 24 17 AE D6 97 9C 04 70 B0 56 F7 BC 91 34 26 FA
 FD 56 DF F5 F4 53 CA 0F 3D 75 05 2A E0 6E 91 82
 1B 86 73 3F E5 94 2F 74 95 88 70 33 26 F1 19 69
 E9 6B 64 DF 7B FB F1 AF 39 37 8C 5E CE EF 26 39
 C6 A7 2C F1 66 09 1A 87 29 36 36 8B 36 F8 95 6F
 DE 29 DD FE 3D 56 05 70 4E 7E 37 33 A3 8B 56 0A
 F2 83 FB 0C 13 06 49 87 0E 02 F8 4A 5D 0F 29 E8
 6D 39 4B B8 FF 05 E4 E9 42 A3 FD FA 11 73 B0 F7
 04 1D EA 0F 84 63 00 AD B1 59 A7 40 FB 51 C1 55
 10 BF 67 28 E4 76 2A 5A 85 AF C7 79 DE 63 78 49
 D3 34 5D C0 AD D2 4C AD 6B 90 78 20 9E 0D 02 D1
 84 E6 B6 EC AA CC 4C D5 AF A7 33 A9 DC F0 AE 97
 04 6A BC 58 9A F4 25 93 86 37 69 7C 5F 12 8C EB
 5A CF 0F 6E B5 E1 6F E8 96 33 E8 64 2C 16 6C 31
 5C 55 96 D8 FD FA F2 66 69 87 43 09 B8 B9 2C D7
 52 2F D4 76 2E CE 36 DC 26 7F CD A9 B5 7A F1 04
 F7 C0 61 0C 0F AC 6D 88 91 0B 4E DF 2F 96 AA E9
 59 CD 70 49 35 E3 AB 85 A5 3F 4C 6A F8 4A F2 A0
 FB D1 B2 0B C3 14 11 8E C1 8B BA 3D EA 90 0B 6D
 19 F0 EA BC 9D 38 08 5C 55 F4 95 0C 5A C8 C4 9D
 FF DB 03 0D 41 CC A1 ED 65 A4 01 16 14 FD 5C 17
 AB 09 AC D8 BF D8 69 28 62 57 1F 14 34 05 EB A3
 AA 53 47 B0 4D 9B B5 52 FE 92 B7 D0 4F 86 57 04
 C7 E6 FC 37 DE 8F F1 64 13 BC 8F 23 6C 13 7B 2F
 C9 09 14 6C C6 FD F6 09 54 97 20 21 64 8D 90 21
 8D 74 B3 BD AA F6 23 0A D3 5C 5A DB C8 AC BC 6D
 B3 AC 9E 47 6D FC 30 F3 09 18 8C 0A 61 85 07 59
 A1 75 76 98 DC ED AD 66 27 CC 7F B0 82 DB AB 3A
 39 0A BE BB 83 F1 C7 73 D9 F2 A8 8A 82 88 DC E3
 B6 AB 3A 4E BC 7A 87 FB F6 CD 01 93 3B FC 44 7B
 22 F0 64 88 79 33 DD 07 75 DA 0E 30 6E 89 90 F2
 CE B6 99 DF C7 95 A5 98 E7 2D BD DC D3 5E 03 00
 FE ED 68 04 2C 93 08 55 DC D1 CE 33 59 7A 31 B4
 0E 2D 71 F9 DC 63 84 FF 54 1F BF 50 5D AE 61 0D
 4B C4 37 C6 C2 4A 2C 47 23 C2 88 3B 15 00 F5 16
 4E D1 56 B2 6E 7D 02 3C E5 7D F6 23 FF 65 52 D8
 9E EF 4E 96 60 4E F1 F9 AC 0C DB A6 79 8B 70 F9
 6F 3B A8 6B 0B B9 53 CF 38 A5 63 E8 4A 85 06 8A
 43 92 AC D7 07 FE 99 07 ED 59 C9 85 47 45 F3 27
 C0 34 2D 45 9C D2 38 96 49 A1 BA E8 F4 44 62 6D
 E0 22 33 6B 2E 4F 56 B6 16 F6 96 BD 59 DC A8 6F
 DC 4F EE D1 03 8C 25 2F CE 38 BA 5B D8 00 A9 23
 58 82 9C E6 DF DB 4B CA 2B BC EE 33 77 EE 7E 6D
 D5 3E 63 EC A2 BA 5C 68 27 80 49 60 2E 43 0C B4
 75 F9 C9 1B 7F 4F 7C BC 7F 53 00 BE EC 01 16 CD
 C4 D7 0C 73 29 1C 4D 3F E9 FD 0D A0 55 7B F7 D2
 93 D5 88 7D 8D E1 8A 18 3D 9E F8 FF 0C 76 C7 8E
 3D DB BD 5A BF C3 BD 75 AE B1 FF 81 09 EA 93 19
 78 B2 EF 8A BE FF 60 74 2D 3D C0 91 4C 73 85 82
 7D B7 5A 52 6F B3 57 9D 87 CB 41 35 8C 20 CC A0
 81 0A 96 E6 BB F1 3C E6 24 EF 48 3E E7 B9 DA 71
 49 5D BC 16 37 DD 55 2E E4 64 11 BF B5 2B 60 0B
 2B 73 33 DF 61 41 50 0F AD BC B5 2D 03 0D 0E 40
 AA 5C 30 B2 45 77 3A 12 06 2E D4 A1 CD 6D 7D 3E
 36 31 B1 BA 67 51 01 3E 0E 1C C1 3A 20 72 F5 C1
 39 81 88 DD DB E4 23 C0 EF A5 0F 14 78 6B 52 E6
 32 F2 CC 6E 5F 22 5F FD 1A 00 07 EA 46 39 67 1F
 CC 12 C2 43 A1 47 BC D8 ED 5D E1 68 8A F4 25 8E
 EA ED 63 45 01 CD A7 24 06 B3 C3 BB AD 43 1C 11
 F5 D2 49 F8 7F 20 48 EA D1 C4 17 9C 54 6C 02 F0
* End 544862841 1091318840