* LTspice Encrypted File
* 
* This encrypted file has been supplied by a 3rd
* party vendor that does not wish to publicize
* the technology used to implement this library.
* 
* Permission is granted to use this file for
* simulations but not to reverse engineer its
* contents.
* 
* Begin:
 36 F0 94 6B 3A 84 EF 83 9A F1 39 EB 09 F6 67 20
 12 2B 49 94 DE 9C E2 A7 D6 8B CA 44 31 5A 27 15
 BC 2B D4 78 D0 22 EA 18 84 CD 7E FF 2E 4D 23 3D
 8C 79 B3 9A 4A 07 F5 D1 02 8F 08 C0 30 B4 34 4C
 1B 48 47 75 98 E8 74 EA A6 12 2A 27 A2 E0 40 96
 99 ED 35 A2 33 15 1B D6 BA DA 72 F7 9B 8A 95 3F
 1C 5E 95 C0 CC DB 1F C3 A2 EE 95 CE E6 AE 16 A1
 9F 5E 51 2C 5D 3F 27 41 1D BA 1F 7B B9 8E C6 08
 4C C2 CB D5 88 0A 4E 6E 51 29 97 CA FD 97 76 6B
 83 CB 59 4C 40 B4 92 48 E0 E6 A2 14 03 8C 6A 20
 EE 9D 24 73 C9 71 5E C7 2E B0 5C 46 09 81 35 7B
 12 ED 71 66 A6 AA 3B DF B9 17 2A BA 83 DC EF 33
 88 78 9B A5 69 C5 5D A5 2C F3 1C 21 B2 BC B9 2E
 F1 BC 2F 00 7D 72 DE 0F D9 A1 8A 81 F2 8B DD 3B
 36 D4 71 06 77 3B A0 51 E9 17 26 81 76 5E 38 AB
 32 A1 7F D3 95 BB 87 D4 2B F9 FD 7C F7 12 FA 65
 F5 E1 12 BE 7E 5C E9 18 6B EB D6 DE 71 87 26 F6
 D8 F6 A9 23 3E 39 AA C4 FE 59 59 FB 27 40 2E 31
 1C 22 44 BC 04 BB A4 E7 11 E6 C4 2F 2B 68 77 5B
 48 0C 13 15 DE 95 CD CC 4D 4B 67 06 61 1E 4F 6B
 12 1C 2E B5 05 D1 3C EC 7F 6A CB AA 02 6C 65 5D
 73 5B BA AB 5D 43 F6 43 6C AE 1A 6B 7F 8F DF D6
 45 E4 E3 17 93 BF 16 5A 6B 09 F6 E3 1B 3E 3D 3E
 47 83 DE 32 9B 4D DE 5A B3 07 55 EC BF 09 9E A9
 F1 DA E8 34 5A 59 1D CF BD 15 B0 DB 78 5A D0 3B
 86 06 F3 B2 17 3E 0A 14 8D B8 4E 3F 14 C2 D9 F5
 42 B2 10 74 A9 4F 39 FA 3F AA 8E E7 3C 37 D3 86
 53 21 A5 7B 75 35 31 27 04 51 B3 C8 93 43 A4 4B
 12 99 F1 F7 C5 20 7E 12 7D EB 2F BF 9F 51 D6 9D
 D9 EC 8E 69 78 72 CA 15 CF 15 03 24 39 47 0E E6
 13 1C 3D 4C F7 88 D7 30 81 EA CC C9 10 71 60 4C
 C6 50 70 1D 5B 13 32 DE 7F 4D 6B D9 C4 C4 6C 35
 9E A2 84 01 E2 7D AD 66 B4 0D AC 90 4B 42 45 DE
 08 F4 4D 83 4E BA 8D 84 41 1E 8A A3 9A A2 C5 B5
 62 C8 41 BA 2B 03 1F 70 81 FA 34 32 05 B3 D1 28
 67 7B 84 34 3C 86 A8 C7 D4 9B 23 77 9F 88 47 51
 19 D9 D5 10 67 B4 2C CA 3B 8D B0 38 9A 02 0F 5F
 0D 2C 98 F5 8E E1 30 07 7C A3 B9 B7 EE D5 D4 8B
 77 3E 69 6C 99 73 8A F8 A6 FF 6A 0C FE C0 E8 4E
 B0 51 0B 19 C7 9C 3B 93 BE 05 A9 47 62 5D 29 35
 1E 70 B1 C1 58 60 DB 96 12 75 42 EB 14 EF 07 15
 0F A1 B3 80 13 39 B6 3E 52 CB FE 27 A2 4D 4C D7
 D0 22 64 32 53 68 A3 4F 73 4C F1 5E 52 AB 1F AF
 73 0F 3F FB 1E E8 49 44 AC 54 1E D0 BE 2E 06 8F
 26 96 74 D2 21 91 30 84 00 8A E7 36 12 C6 75 88
 EC 5D A2 9E 79 DC 1D 85 12 2B E4 A7 99 8E 95 E0
 40 9F AE FD 53 F3 3E 5C 8F 30 59 F6 14 7A 7F 0C
 6A FA 3D 67 A7 8B 86 DA 55 2F 46 42 3A 6E 6F 0A
 82 30 F3 20 48 A6 71 EF 5B CD 12 BB F2 ED B1 77
 65 65 12 D4 0B D8 82 B4 E8 72 86 DE E7 10 C0 C2
 D1 72 A7 19 13 3D EB B8 2D F4 FE A8 59 4E 9A 63
 B6 CF 35 2D F9 57 E4 32 63 FD F4 97 EE 6F ED 5D
 0F FA 70 54 19 9C DA 6D A7 EF 91 91 9E 2F 39 53
 28 FE D6 07 95 E6 7A 3A 21 76 BE 72 D3 D7 70 D0
 89 5D 72 22 33 FF D8 9C 0E 61 DB 3D E7 5B 0C 12
 BF E5 DA 34 56 6B DE 0A 51 66 CA 95 48 5D 6B 2E
 57 D7 31 C7 62 92 65 56 B3 82 9A 78 F3 99 F3 E9
 48 24 5C D1 12 AC 4E 81 A0 6E 76 1A C4 28 A6 9C
 3B E0 86 5E 18 04 11 49 C7 BA 81 77 01 76 32 E4
 3E 2B 85 43 CA 95 64 F9 F9 57 52 82 DA 85 FB A2
 7B 32 EB 32 6E 04 FC 1B 42 8E 51 75 06 45 33 9A
 D0 5A 93 74 14 52 B5 F1 95 7F 79 63 F7 75 97 7A
 9D 44 03 0A D3 FA 9D E5 F1 F3 8A F2 79 73 AE B4
 62 5B D2 85 17 6D FB A1 D3 4C B9 BF B3 51 DC 31
 94 B0 8F 36 58 EF F7 E3 41 E6 78 2F CF 72 7B 25
 2A CF 53 65 DD 4E 58 C7 1C 99 5F 97 25 8E 8F 36
 A8 64 AB AA C4 16 37 60 B5 E7 AA 1B 57 3E B3 BF
 75 1C FD 99 0A 41 94 71 81 A4 F7 02 82 46 9A E9
 BF C8 55 76 C1 6E 54 1B B2 65 2A 75 A4 45 5C EF
 AD B9 76 7F F9 68 30 77 C7 9F B8 4B 10 FD 7E E9
 B3 C2 95 E9 FD 82 6D EF 87 7D 8A 8F A2 6E AD DB
 AB CB FD 06 CB 79 94 C2 E4 0C 67 72 87 4B 72 4F
 12 72 B3 BF FA 54 10 AE 5A 64 39 12 3A 4B 03 BF
 56 3B 82 E3 72 3A F9 D1 92 52 12 AB 8B CF BB A4
 FF 92 83 DE 37 85 2E C2 AE 12 85 E9 03 76 69 AC
 06 FB 22 B6 14 5B 50 84 1C A7 EC 61 5E EF 57 3F
 AB 20 1B 75 7A 9A 45 00 2F 76 15 25 32 2A B4 3A
 00 51 85 6F B6 D2 0F E5 EB B1 76 D7 A2 7E F6 AA
 A7 C3 FD 7A 6C 15 0C 2C 96 5D 33 E1 BF 97 BC 68
 66 4B 82 76 52 3D D3 F0 0B 64 34 0F E9 16 95 65
 2D 3E B0 0E 3D BD 17 D9 B8 08 83 EA B9 01 B9 B0
 44 22 26 10 AE 6C 58 64 F1 09 04 FA CE B0 AD 33
 9E 67 14 8B 56 5C 93 60 4B F4 1E 14 48 6C E9 7D
 ED 3A 29 0A 53 A0 58 8B 6D B1 4A F4 5A 59 37 20
 0F 66 3C 3A 9F 6D 0A 3A C8 34 14 FE 45 8D 5B 49
 30 55 BA EC 5D 13 F1 1C 2E 76 B2 7A BE 37 EA 05
 66 6F F3 44 C8 BE F9 67 9F 2E 6B 0F B6 A7 8A 9F
 62 4D B9 97 B1 DC FE 2D 8F 03 80 70 6A 2F A2 41
 13 9B 11 F4 E5 73 46 BD D8 D1 EC A9 E6 14 89 A2
 AA BA AF C0 03 E2 E9 D5 F5 6E 81 D1 D7 FD 79 6D
 5E 0D AD 5D F8 DF 97 8C 78 F2 23 47 D3 CB 92 3F
 C2 38 6C 83 85 98 A4 8C 58 E8 CF CD F0 DB B8 A2
 39 3A 1C 12 41 5A 58 46 A4 5F 3D 78 84 B1 32 EE
 B7 1E 29 BE 93 51 80 1A C5 C3 9E 1A AF 9C 43 4E
 A9 91 F8 BF 37 9C 21 F6 52 9B AD 66 F0 82 C1 86
 FB CF 7B 13 FE 04 0E 57 91 F6 E2 B0 38 0A EF E5
 67 71 A9 E2 C4 20 33 DC 11 D3 11 8F 32 B6 69 92
 9E D0 F8 F3 B1 5B 42 EC CB 88 01 9C 22 8D 5A B1
 DD A2 B9 B5 1C 65 22 D8 1D 20 F0 3A 06 44 87 B9
 9A 2B 0E CD 3D 6E E8 F6 53 46 2D 80 AE F5 93 9E
 FD F5 1A 7A C7 87 4B 61 14 47 57 44 32 33 66 AB
 E1 4D E2 5A C8 7F 13 0F FF 3E 5D D5 DD 4E 31 44
 EE 0B 7D 92 0C DB C2 A9 35 58 07 46 27 2A A0 76
 BF FA B4 3A B9 5B 42 5C BC E6 9A 3F D1 B0 D6 A0
 05 A1 41 63 C0 45 E7 A0 8E 70 2D 1E C6 E8 A3 DB
 6B 36 78 0C C3 AD 78 7F D2 C1 D8 8A 51 31 2C B3
 BE B8 F6 8F 09 8A 48 99 84 59 9C 88 5A 52 D8 17
 7E 1A 6F 58 46 0B E5 63 C7 9A FD 97 1A 58 31 38
 4C FA 90 C7 63 AF 8D 3C E0 F1 BB FA 6E F6 44 06
 A8 7A 22 E0 05 44 F1 48 6D B6 A2 02 2E CF FF 11
 EC 78 22 25 28 B9 57 D6 14 98 B2 4E CE 48 11 03
 0E 25 FE 2C A1 D8 5A EA 65 D1 47 AE 2E 0B 10 10
 85 C1 A3 98 3B B3 28 04 17 EA 7C 48 D1 22 94 1F
 E9 FB A0 B2 43 9C 8A B3 C1 D2 38 D8 48 45 3C 56
 72 45 7D A0 FC 07 83 EE 3E 32 CB E5 66 79 17 4A
 61 6E 4B C6 6B A5 89 6D 1C 25 63 82 BC 31 A4 95
 4D F8 AC 9F C0 F9 BF 64 08 09 ED 97 CA F6 B8 F8
 7D 3F 40 F8 94 DD F7 E9 39 31 A1 C3 EF F5 D0 7C
 36 7C B0 14 8C 55 47 68 AA 67 38 AF CB D4 B8 47
 6D D0 74 1C 31 37 1C 9E BB 15 2D E8 7A FF 44 9D
 F8 23 79 4B 90 9F 75 D7 7A 44 1D DB 14 99 5D FA
 A1 8C EA 6E E8 2C 4C 84 76 A8 35 9E F6 79 61 06
 49 00 21 E0 21 2D 87 2E 11 C4 9A 61 71 87 0C 2C
 CB CA 2A C8 6F 82 70 F9 F6 38 0B 43 10 AB 8B EE
 FD 30 06 66 3A 64 8F 15 3B 22 AA 10 5A CF DB E4
 3A 94 E2 67 F1 FE 5F 82 75 A0 67 05 6F A3 86 27
 9E 87 15 7D 08 DD 34 1E 5E 9C 3B C5 63 01 A0 33
 1D 68 FA 76 24 27 5F C2 F3 53 69 C3 54 29 4F F8
 4C 7D 55 6D 2E 8A 69 58 0A FF 2F EA 8C B7 77 F7
 9F 4C BE DA 9E C7 FC 0D 53 F6 2C 53 EE 3B A5 C3
 B2 D7 56 EB 92 AA C8 F3 BF 1E 5B D6 1E 86 B3 00
 5E 0B DC A2 67 82 78 EA 67 D0 C2 06 8C E1 BA 76
 BC A6 EB A3 14 1E 48 1B CA 06 EB 60 8C 91 5E 53
 0B C0 55 86 1B 12 9D F2 8F A9 A2 6B 4D 12 DD 2B
 23 E6 DE 78 14 4B ED 9D DF EF 02 3D D3 16 CB E6
 71 9A 23 08 06 A9 06 8F BC 02 28 CD 14 90 17 D2
 B1 50 B5 E6 ED 96 0D EB 93 FF CE 6B 98 D3 04 F7
 80 52 36 21 BB C6 75 71 7E C1 3A C5 67 09 5D A8
 FF 5A 47 6B C0 26 17 F2 3A A4 20 8E 6E E6 06 91
 E6 4D EA BD DD BE 48 92 8E AB 30 93 AD 68 94 51
 0D DB B7 A7 A5 DA D1 F0 4E D1 8A 22 8B 47 70 30
 74 92 A7 14 F5 B7 20 9C 77 6A 4E CB 99 46 DE 86
 CB 86 C6 91 AB 5F 14 9D 5C 84 E8 27 7C 03 11 B1
 C4 9F 96 E1 77 C0 B3 F3 96 9A EC 09 D3 56 72 79
 81 27 4A E5 18 BC 34 A6 61 17 F4 E9 49 38 7F FC
 F7 0C 19 AC 6C C0 39 D3 01 3C EE ED F7 CE D8 88
 C6 EE 8E 12 E3 14 85 64 AC 40 C6 17 C6 27 79 DE
 7C 0E 2D 4A 82 91 E5 25 14 14 79 E0 3F 1E 75 EF
 B3 CA 76 65 50 C6 9C E4 E8 25 3C C3 99 37 25 7A
 DD A9 63 22 11 BC 33 EF 5E 13 B5 3F 24 66 45 23
 B7 79 19 A1 94 E3 BE 8E E0 1F 6C 63 97 A1 83 7D
 07 A0 6C 72 F7 27 95 F6 10 29 CE 03 A7 7E 16 22
 90 1A 65 AF AC 7D CB E0 64 16 C2 F5 5A 5E E2 2E
 B2 AF 76 9F C1 DF B0 CB 57 CC 7F E1 BE 65 C2 EE
 35 FF 98 42 97 27 AA 3C 33 DF BC 16 2B 58 EC AC
 4B 5B B9 39 57 0D AC 41 CF A8 CD 62 F1 27 C8 D4
 C8 F0 87 EA 67 4F 16 5B D5 27 D9 8E BF 53 40 D5
 84 50 61 8E E3 FD 22 C0 C8 1A C2 DE 20 92 FC 55
 B1 CB 7D A6 42 D3 C9 E2 BB 17 0A 85 F1 2A 46 C2
 F8 04 7D 09 58 0F 48 FE 72 43 08 6B BA 4E 26 31
 D9 88 33 C7 77 F5 A6 24 1B 08 34 B0 75 5A FA C8
 5B 51 53 65 79 00 72 DC 05 B4 51 C2 A9 D2 61 BD
 97 EF E2 40 D4 A8 46 45 EE E3 BB 04 6E 2F A5 26
 CA 06 9A 86 E4 F2 EC E9 81 D0 7E 44 1A F2 55 9D
 CC 27 08 A3 BB A6 29 CA CF 6A AC 49 0F EB 0A 00
 2E C9 FE C2 D9 9C 1B 26 18 61 33 68 97 72 C8 DE
 35 42 F3 1D 6E B1 D9 7A F0 B0 85 04 31 00 18 58
 A4 35 2E 09 14 C9 B9 18 A4 1C 57 3A 99 57 7B 41
 EB 14 14 DF 68 B6 01 99 37 46 FB A4 35 B3 E7 8D
 36 2D F1 F8 FF AA 40 CE AF 85 57 EA D7 64 9C C8
 69 84 7A B3 CC FE 51 8A A6 07 2D D9 FB DD 43 C5
 A6 CD AB 7C DF F2 09 AE 12 45 FE 6F 29 20 B5 29
 EF EA 6D 29 38 1D 01 F0 32 42 51 D5 9B 1D B9 1F
 15 49 6E 8A AF A1 D6 68 3B 45 93 E4 3E 8C 0A 00
 94 81 0D E2 7C 67 1C 63 83 5A CB C6 4D 37 70 8F
 89 5E F5 6E 4D 1F B4 80 BE 71 4E E0 16 F2 C4 9C
 E3 7B 2D 3A E9 94 88 D6 7F 73 9A 84 63 44 FC 86
 ED 39 7D BB 34 3F 4A 99 F6 EC F8 44 61 D1 AB 8F
 3D 90 A0 B3 C4 61 D5 6B A8 D8 99 A8 E5 E1 15 34
 99 5C 49 1C CF E5 59 76 61 11 F2 79 B0 E2 1C 03
 9E A2 D0 02 C9 D0 5E 70 DC 22 B4 E8 45 4F 95 E3
 BA F3 AE FD 8C AF 5D E8 06 5B C9 76 0C 2E F8 E1
 74 E4 8D E4 FF FA 33 DA F5 C3 3F AB 56 3D FE 3D
 8B BD AD F0 32 E4 E7 A0 02 39 9C 2A 93 7C F9 35
 2C A2 F8 A1 0B 07 EB 8B DC 85 99 51 22 AE D0 1C
 43 E7 CB 5F 9E C2 D0 B0 96 2C 07 FC A8 B5 BD EE
 F8 BF BF 46 9E 4F B8 DB FB A1 C4 D8 72 26 AD 11
 68 0D 8D 02 BE 42 B8 94 7D 66 37 65 B6 78 45 46
 2C 34 1D 39 A2 A4 AB 82 ED A6 E3 33 B9 DE 29 DA
 CA D2 8F F0 19 78 4E 6D CD DB 54 27 2F E2 6B 1A
 B5 B4 91 78 7D 84 0E 7C D5 09 F3 82 C3 B7 41 A3
 5B 29 B7 01 38 2B 9A A6 E0 6A 80 CB 03 C2 18 5B
 13 89 A5 C0 6E 6D B9 02 CA 4E B1 28 EF 04 0E 6A
 0E 4F C8 62 D9 0F 05 F6 37 35 4D 58 41 49 F5 46
 73 DB 5E A7 84 E1 62 D5 94 F8 C2 62 46 D1 8A 58
 82 BF 2C 8F A0 59 7F F1 7C 6F EC 95 03 DA 91 0F
 57 A4 CC 31 00 3C 73 B1 71 AF 9F 86 BE 79 A7 F6
 A9 E5 64 B9 0C 3C 49 E6 75 69 4C EA 58 8B 4A DE
 75 3A 69 B5 EE 78 70 B1 B8 33 BA 9B 7D A2 BC 8F
 0D CF 10 CC 53 A1 92 B6 44 AE F8 D7 E4 10 7B D4
 4E DB 56 43 5B 49 D1 E3 CC BA 6F 4F 06 F4 9F 8D
 93 59 7B B0 DD E4 6E 9B D5 9D 24 9A 17 01 04 EB
 2E 81 46 61 70 51 CD 06 24 50 F6 DB 07 02 62 85
 1C CD B9 03 8A B1 F9 EC 97 C8 64 E5 C4 06 41 A2
 2F A8 D4 0A D7 17 44 01 36 8C 23 4D 4A 29 AA D0
 7F 53 52 78 F5 08 C0 12 49 9B 57 E5 83 28 3D 00
 AF D1 4C 54 21 38 70 88 1F CA 8C B9 BF 93 D2 F9
 61 D5 E6 7A 49 3B CC 1D 76 E2 C4 67 69 97 F9 38
 28 5B DE BC F6 D4 19 33 94 3E BF 85 4E DC 86 B7
 78 EE 22 FC 9F E3 64 5D 1F B3 95 F2 FB EA AA EB
 A2 F5 02 C0 2A 3F 9E 0D 14 22 7C 26 FE 3D 8F A6
 C1 46 0C 92 27 19 05 D5 D9 F8 DE 89 6C F6 56 81
 0A 51 F4 41 E5 7C 90 18 B3 B2 8B D1 67 EA 75 7A
 C0 6A 6A E4 FF 38 CB EB 43 DB A0 D2 DD C8 81 BD
 93 87 DF 81 A5 AB B1 98 12 65 2C E6 62 27 4F 46
 DF F6 F5 32 2D 76 9E F0 92 D8 F6 F1 8C 9A 51 E4
 01 A9 7E 68 11 B2 20 75 69 5A DD 6E 8D 1F 33 BF
 4B EE AA 7D EF 05 35 EB B6 81 9D D7 ED A9 8A C8
 FF 68 60 67 53 38 84 4A E2 FE 4E FF 99 1E 42 D1
 F9 0A 63 88 48 DF 6D 08 D6 FC 16 80 71 B7 43 10
 46 8E 09 4E B9 8B 80 4B B9 DA FC 8F FF FF 61 8B
 9F A6 FB 03 EC A4 CC 6B AC 00 2B 10 B4 F3 37 37
 36 EB B1 3D 49 59 35 3F 4D 63 F9 3F 7E E2 87 8D
 73 CA 94 26 B4 29 13 4C 52 BD FB 06 BC 5B D5 A6
 E0 56 F5 18 BD D9 78 51 9C DD 39 FB 5F 68 C0 85
 14 48 FD 4E 4A 83 4E 9C B3 33 68 FD D4 BA BB 82
 F0 E5 DE A5 4C 21 AE 61 3C 93 78 7E 08 3A 08 7F
 05 63 20 F1 5D F4 E6 E8 50 33 9E 29 C5 B9 4A DD
 15 57 FC EF 37 88 42 A3 8E D8 50 E9 43 85 07 6C
 7B 28 CD 28 7B 73 F7 A2 7F 7D 9A 56 71 A6 08 84
 9B 54 9A 3B 67 F9 FB E3 21 AA FA 39 76 C4 1C 75
 70 18 F4 F3 97 01 A2 94 D5 B6 27 57 F4 A1 6A 3A
 01 4A 3F BA 8E 87 2C AC CE 01 EA C7 EB 42 37 D9
 C5 11 32 7E 92 96 63 F9 F2 F2 22 9A AD 92 4E EA
 E9 18 AD F1 7C 84 AE 3C D1 03 79 00 F6 A5 FC 36
 A0 88 CD 48 21 61 00 1A 93 51 AE 25 6D 7C E0 2D
 FF 14 C6 EB 7D 17 A0 49 E6 2B 22 FE 83 5F 94 57
 95 C0 EA 52 32 EB E0 C6 92 BD 16 1D B5 CE B4 62
 A9 F6 3A 7D 56 7B 46 1D F2 D8 75 2A AA F4 B6 E7
 87 C9 F7 97 70 BA 44 82 FA 59 A0 91 DD 83 FC D2
 F5 FD AC F1 E8 57 80 71 3B 28 A5 9D DE 3D C2 A7
 D8 A0 C0 BB 99 A1 3E 40 15 98 35 96 CB F8 3E CB
 E6 9A 30 A4 EC C1 6B EE AC B9 65 2D B3 05 F8 0C
 1D 3B E0 C1 7F A7 51 B4 5D 31 D0 2A 3E 06 AC E8
 C0 B8 D8 3F 4E B3 77 D8 1E C1 F3 17 65 C9 9E E5
 E9 D4 F4 88 44 5B F3 1B D3 16 F7 B3 85 0E FC 49
 05 DD 60 55 4A 1F 2C 84 95 89 97 6F 8C 75 B5 23
 4A 3D 3F 74 27 1D 83 E4 2E 3F 00 F7 5D 5D A0 D2
 73 53 31 11 4F D3 06 A7 81 B1 D1 26 D6 55 89 FA
 E0 6C AF 1F D7 15 16 DF 42 0E CC 3C BA 1B 25 23
 49 14 AE 60 1A 7E 71 A3 CF A2 89 F2 F9 2E 14 B3
 74 89 B5 14 ED 40 21 67 DA 50 B3 A4 BA B8 8F 09
 5C D5 09 CE 2B 41 8E B6 E8 79 71 A9 69 DA 21 42
 7A A5 EB 02 AE 7E 22 DB 6A D1 E5 0C FB 90 64 DA
 F6 B7 F5 1B C5 06 85 67 EB 02 15 71 24 9E 07 16
 27 B7 F1 E0 87 59 D2 BB 55 67 D7 FF 78 8D 25 7B
 1C 9F 9B 79 90 C6 86 F6 28 7A B4 C5 0F D4 A1 EE
 99 91 90 4C 1D EF 87 02 B4 1A 91 8E 68 1F 93 DB
 01 12 05 6B 1D 12 22 AB A6 B2 92 E6 BF 00 A6 69
 D5 12 2D 39 42 0D 26 43 47 EA 20 4F 08 87 AB BB
 2A D3 F1 DF 6C 05 BC 7C 2B D9 F3 96 F9 66 EC 71
 BA 75 CC 82 BD 4D 38 D0 BC C5 2D 5A D6 A7 E8 9F
 A2 0F DD 19 36 61 F6 81 D1 8B 16 23 73 70 C7 AF
 6E 6F 6C D7 99 56 B1 B8 C4 E5 AD 41 CA 08 18 C5
 92 DA FF 71 ED EE C4 DF 17 D8 83 54 26 8E 74 64
 9C 0A 57 8A CA 4A 68 C2 9A 38 4C 1F 07 2C D6 C5
 66 FE CE B8 9D 3D 11 FE 79 6B 16 DA B3 98 85 C7
 BF 24 50 48 76 10 4E 97 80 62 2A B3 AA 6B EC 29
 A0 E7 6D 59 9C AB 40 79 4C 48 C5 99 4B 4A F0 9D
 08 F5 55 01 45 70 28 28 03 71 C8 AD DE 1A 53 1D
 9F E2 13 A6 0B C2 B1 6F 08 A4 2D 1C 10 69 1C EC
 DC B7 C4 7D 8C 87 B7 CE 42 78 C5 B6 AE 12 84 40
 64 9E 0E DE 74 0E CA AC FF 94 26 06 13 AA D4 3A
 6D 57 74 67 2F 2A D4 56 9E 6C 8A D7 C0 83 7B 43
 1B C6 CA BD 3B 62 C2 4C FE C6 B5 3F 20 3C 75 1A
 ED DD DA 00 E2 BB 08 54 CB A0 04 DF 47 62 C4 82
 2A 01 AE CF 86 38 96 BA B0 42 F2 3D F5 BC 23 34
 9B F5 CD 15 B2 B0 83 5E 1E BA 63 61 00 BC B5 A9
 0A 33 6E 7C 50 D0 00 E0 CC DD 0B F1 B1 90 DB 73
 94 B5 C8 18 78 4B 4F 7B 3A 24 43 B9 BA 65 70 02
 B2 D8 27 28 98 1D 5F 5E 59 46 F1 6F 5A 35 1A ED
 50 AA 59 A9 BB FC 96 DF 4A 26 0C ED 58 52 E2 30
 45 FF A0 A6 3B E1 BB D2 D6 65 AB A6 5A 96 78 69
 29 00 BA 34 4C A3 DC 44 EA B6 1E 73 90 51 07 D2
 47 D3 C4 33 F3 A2 5F 3E 26 23 50 F4 45 C9 B8 61
 06 74 1B 2E 7F BA 16 09 74 E0 07 9C 66 8C 29 A9
 84 25 59 B4 03 BC B7 C3 5A EB 99 61 5C 18 2B 81
 A4 4E A1 35 65 09 ED A7 6F 7D 24 BC 41 77 D0 C6
 86 7E 1E 7F 62 89 3E 11 F7 E1 10 50 91 8E A0 36
 15 2B C5 A7 CE 56 8B 57 60 46 6F ED 49 07 28 0D
 01 04 1A 81 14 D3 5B 93 E3 56 AB C6 9C 5F 9B A0
 97 F0 5A 23 51 91 BB 51 4A 33 A6 A1 D5 3B 86 9C
 0E 90 F6 BD 11 E8 38 02 CF 42 F3 6E F1 84 14 9B
 2F 32 5F F2 87 E9 11 42 5C E4 5B EB 3A B5 5B 5E
 98 A0 55 3B BE 9C 0F 78 22 AF 8D 7B 1A FC FF 3A
 1D 75 5F 6A 89 F0 83 1F F6 B0 2B FF 00 41 DF 3B
 1A 58 F7 AB 94 0D 7D 1E 38 51 C0 40 02 0B 7B 88
 65 66 04 1D D4 A4 3E 58 E3 17 B1 AD 8A E9 AF 67
 0C AD 3A 61 7F 9F 0F 28 B8 57 C8 9D 29 10 5D 35
 CC E4 7F 98 68 04 24 17 F3 F4 1A 7A BA 01 DC 30
 9B C2 3E B0 57 97 7C 33 42 3A 7B F9 44 58 F8 FC
 0E 60 77 BB A4 96 B5 B5 A6 C0 43 2A D0 12 99 D6
 4E 98 E5 96 DD C3 0C 99 0E BF DB 2F 6A 20 2E 42
 07 75 85 B7 DB 42 66 22 A7 57 7C 52 48 F6 9A 82
 C6 FB C4 1C 7D 2A 03 7B B3 C7 21 81 A9 B7 91 3B
 37 C9 84 13 56 13 E9 A9 09 DE 9C 34 5F CC 23 0A
 AB 37 2D F3 81 74 12 B7 42 80 49 FA 03 6C 9A 1A
 AB C4 F8 73 0C 4F 5A 5C 13 94 F8 5E 6C F6 FF 2C
 D8 E8 1F 9B 5A 7C D3 4F 94 10 96 ED 13 F5 AF 3E
 74 67 B5 D7 75 E6 F8 3F A2 4F C5 7E 0B 5F 5A 9D
 36 3E 40 C3 96 42 AB E5 01 F2 D0 33 6D E1 FC 84
 93 7D 89 F0 FB 1D F1 D1 62 91 B4 15 46 30 1E A4
 39 C8 FB 04 6C 1C AB 43 D8 91 29 BF 30 0B 2C 0D
 B4 CD 01 81 31 C6 F7 6D A0 3F 8C 37 3D 44 29 DC
 55 47 74 FD BB 7F 2A 47 89 CB C0 8F BE D8 0E 87
 64 AF 01 C7 72 19 15 9F 2D 2D 2E FC F7 0F D0 53
 36 26 B2 D9 63 3B D7 EF 12 4B E1 DB BA 93 02 12
 00 13 3D 82 85 A2 99 D5 F8 54 E6 2B 51 18 99 AE
 0C F1 D5 C7 2B 1B EF D2 01 74 A0 A4 FE C0 AE EA
 2F CF FD 98 0D 8A 60 A7 20 56 C9 FB 6B 72 CF E9
 45 EF B0 94 C1 C7 0A DA CC 95 98 D8 50 90 65 08
 83 5C 8D BF D2 C4 2B 81 A1 3C BC BB B0 C6 C5 F5
 E7 7B A3 B4 8E 1B B6 F9 C0 BC 4F C6 E4 43 97 D8
 DB 29 2F 99 E6 F0 12 AD 51 C6 4F 4B E5 D4 C5 93
 EE CF D5 FD 16 FD 2F 69 A1 A3 30 B8 88 FB 86 F4
 8B 0F E5 1A BE 5D 88 EF 75 77 A6 46 5E 97 C5 9E
 04 BE 58 0D 96 7E CD B3 47 08 17 F8 F4 70 A3 B8
 B0 17 9A 4A 9B 8F F4 36 0C CF 8C 21 45 D5 0F 6B
 61 A7 CD DC DA 97 18 DE 98 64 93 DD 7D 43 4A CC
 1C D6 E7 37 C7 02 38 D2 45 1D E4 64 95 4A 5C 2A
 19 86 2C 00 10 4A 54 DA DC 26 08 B6 7A 4E 74 DB
 F4 EC FA 09 A3 51 45 56 67 30 93 AC 6C 7C D9 68
 98 BA 03 A0 56 0D 15 92 E7 4C 0E 7E 7C 44 AD 30
 2E A0 1D 20 CD D2 BD CF FD AE 00 B8 43 84 AD 68
 E4 2A 38 11 26 3C 1F 60 F8 B7 80 89 69 23 00 F3
 FD 1D FD 12 0D 41 13 6B C7 2C 4D 0B D4 D6 E5 E9
 4C 38 64 8C AA 6E 1D 84 C4 F6 8E 82 A1 F9 CD 09
 46 2A 4E 06 25 63 A0 B3 45 60 3B 33 49 A6 50 C5
 61 48 C0 58 26 13 E8 33 47 BC CC 97 CD EB 0A 82
 90 E9 38 31 6F 5E 48 52 BA CD 72 2C E9 9D 84 56
 82 33 56 02 AC 3C 65 FC 86 04 43 D1 1D 2F 17 6A
 5F 88 12 EE C0 C0 05 F7 90 69 92 EC E2 8B 2A A9
 C7 ED 3D E2 FD 4E 9D A5 4F CA 33 B2 BA DC 2F E7
 5C A4 9D 63 44 89 19 5A 14 59 C9 02 C7 AD 6F E3
 1E 4F 1F F7 A8 8A E8 A9 E3 CD 56 98 5B DE 6F CF
 01 7B 1C 54 17 74 5F FB 13 30 56 7D 64 CF 27 3D
 32 01 20 41 18 7E ED 0C A0 30 1C 08 9F 74 AE A0
 14 A2 F0 9E DA EB CD F2 62 F7 FB 9D 24 78 4A E8
 05 40 16 5B 10 A6 EC 0C E2 CA E2 98 E7 23 C8 D9
 FE F8 DC 1E 4E 6F 15 F2 ED 3E 69 93 7E A8 C4 9A
 3E 83 C7 06 75 AE E3 00 8E 96 0B 20 27 7D 47 02
 77 5D 39 17 55 6B 3B 23 A2 FF A2 D2 AD F8 E6 39
 2D E6 AD A6 89 E4 FD AB A7 0B 00 3D 9D AB C6 5F
 4E 1B 80 9A 23 E1 8B 2A 94 BD D6 B0 2C B9 93 51
 B1 95 9A FB 42 08 DB 2D 5E 57 79 F6 74 1E 24 FA
 9C 48 60 75 BC BB 84 45 34 F8 98 F5 C9 7B 70 F8
 D7 DB 01 D0 F9 CE C1 83 E8 0A E3 03 99 8E 21 BA
 A1 87 1A 84 B0 EA 52 B9 DE 07 57 E5 36 EA 14 41
 04 F1 AC 7C 97 7C 42 B4 4E C9 E5 0B D3 33 93 A3
 A1 D9 86 49 84 1D A2 8F B8 55 EC 39 F7 8B B8 94
 1F 9C 72 26 12 FD E7 B0 A6 78 91 8A F7 FB EE E7
 A7 F6 89 39 74 C8 C7 66 08 85 CF A9 F3 AB A5 41
 25 CF 1E C9 84 99 14 6C F4 5D 44 4E 9D 49 B4 6B
 85 47 CA 4D 50 10 82 EC 2B 02 16 2D 4E D0 B7 F6
 DA 7C 0F EE F6 87 22 E8 38 27 AC C1 1B AB 13 C7
 27 00 B5 5D 31 7F AC 15 4C 7C 4D 74 B7 38 54 26
 DA 0B 66 58 8E 9A F8 BD E1 27 08 52 D9 E0 A6 8A
 04 26 52 C0 F4 A0 68 EC 98 1B BD 31 D5 33 5D F3
 5B 1D 51 D4 4C EA F7 AA 09 C1 DA 2C 85 C1 F5 B6
 43 42 ED 73 C6 5E 08 9F 05 53 16 6A 48 31 D9 A7
 C2 35 B0 71 A5 7F 27 A4 12 33 7A 5C 04 A4 04 AF
 23 6D 81 83 65 93 A9 97 13 A8 BF 6D 9A 9A 59 CD
 CB AC EA 18 7E 30 A4 A2 39 FF 96 58 E2 13 07 DC
 4A 1B 1E 44 B3 F8 5C DA 4F F3 B3 58 5B F2 F8 66
 CB 6C DD C8 52 F3 39 23 13 01 68 AC C2 82 D2 06
 A8 D0 1F 4B EC E1 22 7E BE 9E A8 71 6C 19 51 74
 C9 FA 11 EE 2A F2 06 EF 78 37 39 96 21 C4 D3 63
 BF 67 0D 70 70 72 7E 3B 4A 4A 63 1A 4C 2E 88 A7
 24 C9 B0 50 AE C9 EB 58 CB AC 7C 7B BC 24 EB D3
 70 00 AF 37 60 27 AF 83 F4 7E CD C6 07 ED 42 95
 E6 6D 75 74 82 B0 23 2A 8C 78 87 80 BE 84 7C 69
 21 E4 6B FC 06 B6 73 9A 27 D4 88 96 89 B1 7A D3
* End 3641479424 2293314389