* LTspice Encrypted File
* 
* This encrypted file has been supplied by a 3rd
* party vendor that does not wish to publicize
* the technology used to implement this library.
* 
* Permission is granted to use this file for
* simulations but not to reverse engineer its
* contents.
* 
* Begin:
 E4 28 E6 A1 D7 EA EA AA 39 54 C5 A2 D6 EF E3 EB
 3A 2D 18 21 8F 69 DF 96 33 E4 0C C0 DF 71 1F C7
 93 12 F3 0C 96 81 D1 04 DA 02 C5 97 CB BD 5E D8
 0E 55 97 14 20 5E CF AF A0 1D 80 94 25 18 4E 04
 3C 23 E1 FB 01 D0 4C CE C5 DD A1 0F 5C 1F 34 11
 F5 A7 36 97 96 19 65 55 BA C0 75 B5 56 5E C3 63
 D8 25 00 48 5C 72 DC A5 34 9F A6 E1 66 1C 8A 2E
 51 6F EB 56 09 1A A0 5C F9 F4 BA 6C 37 2A 28 51
 49 15 E0 9C 14 57 9C 96 AA E2 C6 99 88 B0 BE 0E
 2E F8 A8 80 25 3F E2 8C 01 05 F7 9D B4 09 FC 73
 24 EA 95 65 D6 29 91 71 03 08 9C 68 E5 4C A8 C3
 DF B4 68 8C 81 8E 5B D6 4A 20 39 E7 BF F1 3E A2
 AD 31 77 AB 2E E6 69 86 6E 89 34 1D 9C 14 5B A1
 97 59 1C D6 C6 DF 7A FB 50 9F 52 8A C8 9A 29 C3
 C6 31 65 8C 56 A8 1F 81 6F 00 E3 AD 69 65 DC 4B
 D7 A2 28 B0 32 66 69 93 23 C7 31 FE 38 E7 7C E4
 4D 9B DA CB 4F F1 0E 03 47 0D 48 3A BB 1F BB 45
 50 9E CA 3D A8 EA EB F1 2E 11 6A EE 9E 59 6B 42
 DD 03 D7 07 C6 5A B7 E6 C4 13 90 C1 6E 37 7F 97
 33 9E DB 58 B8 22 7E CF 30 1E F3 15 1A E4 61 F9
 C8 1D 1A 02 36 B1 09 BD 78 87 6D 30 1C D2 88 55
 4D 52 B8 A0 BA 2C 52 CD A6 B2 45 15 B3 B7 5C C9
 DC 97 F5 BC 2A 3B 6B C7 CB 5E 70 60 C6 E4 92 DE
 B5 4F 78 31 15 F2 1F 1F 19 C0 73 1C 79 14 7C C8
 77 8C 9C 6A B9 64 43 CF 99 1B E3 FC B8 DD 36 78
 C2 63 2D E6 08 80 16 39 EB C4 3A 42 2C BC E1 FE
 2F 5F 77 12 06 8E 00 6E 81 E7 77 1F AA 30 21 15
 37 DD 7E 6E DF F0 4B 21 B0 53 C7 72 89 EB A0 C4
 67 9F 18 31 14 0F 78 EA CC AE A2 19 07 F8 31 37
 36 E1 D9 5C 21 FF A1 88 D3 96 1C 62 69 A9 58 E3
 47 39 58 BA 9E 91 C8 71 33 4E F3 2F 7F FC 59 9D
 D0 08 A2 9F A6 1C 6F 44 71 45 8F E8 D5 5F A2 19
 10 E7 8D CA 45 C7 3F CB 75 05 8B 73 85 0E D3 DD
 03 6B 5D A5 A7 6B 90 BF 86 46 A4 E5 6A FD 85 3A
 71 C8 45 28 29 21 8A A0 0C C4 65 ED 44 61 7B 8E
 20 E7 BE EF D6 55 40 5F 77 BA A5 D1 F5 8A 33 A3
 0D 16 4E FD 57 39 D8 58 2B 1D D8 C7 88 EE 69 D3
 1C 62 97 35 67 D5 BC 65 87 8B 20 19 2F AA F9 A7
 1C 72 3A B0 06 51 17 93 78 F3 6F 7D F6 02 10 C5
 A1 7B 10 80 15 77 17 CB EB 15 E0 C7 5D 2E 39 43
 01 9C D8 3C 9C 69 63 2B D9 75 BE 39 1A 4D 72 46
 2D 48 E3 89 0B D7 55 B6 E4 92 47 4F 4B A2 00 28
 D4 4F 85 51 8F 8F 1F CE DD A4 14 A7 14 6C 82 75
 1D 3F 60 C1 75 51 0D 17 83 8B A4 B0 01 C3 C9 A6
 03 2A 74 6E 99 0B B8 07 E2 8A E7 8C E9 B6 F0 C8
 25 D3 0A 62 D2 DC 7A D4 06 AA 5F B3 BD 7F 3F 67
 2B 8D 1A 30 A2 AD 6C 20 04 9B 5E DD 8B 41 42 72
 69 FF 4D 4B 8B 6F F5 CD 4C 56 AE A5 E7 78 CA 19
 3D AD 3C 3D 88 13 AB FB 91 CD 5F 10 82 15 38 A4
 54 BE 90 76 83 5A D3 D3 AD CD 7E 5C F5 78 C3 DA
 FF 44 3A EA C7 49 88 76 08 CF 3E 9F 8D 94 CE 18
 B4 E5 84 9E 2F F9 DB 60 D5 FB 98 31 D2 F3 6F 29
 E2 86 53 38 74 D3 AA 9B B3 66 77 EE C8 0C AC 6F
 38 89 7B 1B 35 9B ED 2A 65 D3 25 C8 0F D7 67 40
 8B 46 37 F3 4A 5A D8 F2 2A F3 AA B6 05 AB D7 7E
 97 5B 9B F3 F7 36 4E A3 C8 A3 02 68 2F 85 15 A3
 CC 32 70 38 D9 9F 0B CB BA FD DC D1 33 FE 29 C4
 AF 28 93 3A A0 BC B0 ED 85 00 C9 8C 18 9D AE C2
 BB E3 4E 65 4F AA 6F ED 55 72 36 BD 3F 66 DF 88
 7F C3 57 61 E8 D4 E7 95 70 62 80 9E 3D C2 C8 8F
 FE 08 3D E2 D6 3C 21 B3 11 34 44 4D 26 91 23 D9
 ED D6 2C C8 C5 A3 8A E0 5F BA 06 AC 5E 8B A2 0A
 2A 08 BA B4 86 D6 FF E8 59 1C CD 3F 4E 43 E4 95
 DF 4A 9D ED F6 AF DD 13 CD B2 E0 35 14 88 3F 3A
 C8 68 C8 56 A1 CB 31 65 6B 66 91 FC 61 E4 84 92
 39 6B C5 04 77 37 6F BA 7B E6 9E 8A 27 25 D5 5A
 5D B0 7A E8 C4 E8 A7 F8 C5 8E FF 25 C8 32 39 88
 39 FC 75 E1 2E 50 18 DE 9D F8 0F D0 9A 0E A3 41
 CF 31 B7 63 43 C5 D9 43 75 0F 7D 47 6B CE 9A BB
 C4 20 75 29 ED 3F 99 1D B2 9F 62 01 67 7E 1B 67
 A1 E9 D6 34 53 1D BD 31 B5 DD 6E 72 25 5C 9C 34
 7B 04 81 3D 48 AB 96 D8 E5 80 6B 5B 79 A0 C0 2F
 3D 20 D6 DE F0 45 80 5E 64 42 9B 76 A1 2B 14 0A
 E3 EF 4C 90 17 12 57 63 51 69 8B 09 64 FD D8 FB
 DB EA 9E BC A8 B6 08 DB 83 13 6C 9D 45 BD 98 E0
 F1 38 49 D9 20 D3 CD 0D 4D 36 67 B1 60 91 86 31
 07 C7 DD 5B 58 EC C0 84 92 1E B5 F7 07 A3 C9 CB
 95 24 32 3D DF 3A EE 37 86 94 55 F0 27 2D 45 6F
 20 80 AE 3C FE 5B 97 86 09 51 0D E1 4A F4 7A 4C
 39 70 EA 69 97 A5 5C 1A BE C3 99 DA 67 2A 80 53
 A3 8F 7D 27 68 89 F2 E4 02 BC 2A 57 71 1C E2 7D
 CD 2D B0 B7 66 82 C6 D6 12 AB 03 01 F6 31 BD CB
 AA A6 05 57 27 EC 90 55 31 87 F6 CC A7 E1 5B CC
 C7 6D 2C 15 2C F0 63 49 1F AD E4 BE B5 9A 31 39
 D9 3D DD 1A 84 95 91 76 74 7B 25 71 D9 79 9E D3
 1D 05 0B 42 82 AE 01 48 84 6E 2C 3D 15 74 AD B3
 1C FE 4C B2 5E 16 91 7D DC 29 DF 00 CB BE EB 21
 AC 53 08 2C 9A A2 FD 40 A2 D8 A8 FF 15 6F A1 20
 79 12 4E 41 08 C1 42 20 87 2F 16 B9 A3 B4 79 F8
 BA 46 32 19 9D C1 56 AE 2B A9 46 76 E5 CA 05 37
 B2 E4 A0 3E 14 66 31 CD AA F4 91 0A C3 5A 51 C1
 D0 29 E0 E8 54 1F EB D9 72 A2 83 BD 75 4F FB 80
 70 D4 76 64 A1 A7 0A 10 37 EE A4 3A 5C C9 3D 38
 B0 97 F7 07 F5 1B 95 F8 B2 BD 17 F1 38 B2 0B 1B
 6D 4D D7 DE C2 B2 82 F8 8C 67 FF E8 8D 49 CF DA
 AA 4A B0 92 B0 A1 DC 4A 97 9F 4D 3C B8 51 44 31
 C3 A1 D2 2F B9 7C BB 02 9A A0 D0 CE B7 F5 C8 5C
 E3 17 FD C3 8E 87 2D 89 35 9F 9E 02 AF 5A 07 BE
 39 A9 D5 92 32 E9 82 C7 12 69 3A 07 03 EA 30 2A
 4C D0 4D 1A 06 11 82 FC 93 3D B0 62 78 69 6D A5
 2E 5B BC 88 09 BF DD F0 18 29 D9 63 12 D1 87 18
 AC 85 C9 F9 C4 E7 04 3A 1E 87 2B 3E 0A 3B 8F BF
 A2 21 03 59 75 22 63 CC 5E F0 6C 10 76 9A D0 66
 C3 FD 71 7F B4 72 67 E2 4B 86 E9 C6 BE 20 5F DA
 14 1B 88 8B 8A 0F 62 4E 11 FD A5 D4 79 61 41 F1
 4A 86 EB 8D 03 A2 E5 AB 2F 2E EF 4C 33 87 B6 1F
 2A B3 0E 8B AA 10 F6 45 22 16 0E E1 54 1F 0D 79
 01 98 E5 B9 44 CD 78 A8 15 EA 3C BC 85 22 BB FF
 80 08 2E EA 32 FB A2 37 56 7D B7 8E 87 35 1C BA
 78 7F 9F 3E E8 BF C0 7D B2 38 30 A1 62 E8 FE F0
 CB 0C B1 25 0D 57 EA 1F E5 38 03 37 63 CC F7 A0
 6E 4E 29 A2 21 73 13 95 2A DA 84 65 16 2D 67 DB
 2F A8 72 09 88 5F C6 F1 BA 5F EA D0 4C 88 D9 4C
 56 5B FF EF EA 7F A9 2A 51 AD 01 0A 87 59 74 83
 E3 E7 3C D6 6B E2 BC 25 11 B6 C3 2C 76 BE 0D ED
 72 D7 E2 08 92 8C 99 EE CE B9 CC 95 5B 80 48 AC
 50 26 FB 13 F6 47 1E 36 91 B8 64 2C 8B 90 80 90
 C9 AF 83 EC EB 94 5E 66 60 41 13 4F 55 7D 05 2B
 7C 93 37 94 72 A1 31 DF C6 33 B1 0C E4 FB 6B 0B
 14 EF E9 2A 8B CA 3E E9 19 2C 6B 37 76 B8 32 DE
 BA 5B 09 01 5D FE C6 86 79 F1 09 FD AE 73 F2 08
 6A FA CA 88 34 BA FB C1 92 F0 A7 0D AB E8 E9 13
 CA 12 26 CA 73 22 0F B8 00 A0 01 55 C2 89 A4 A3
 0F 22 84 AB 8B 35 8D B1 CE DE 18 72 09 00 BF 85
 6E 3B 9F 61 A0 DE 8E A6 0C 36 43 BF 7C 65 2B CA
 71 B0 0A 37 FE 7F C3 52 53 2B 8E C5 2F DA FA D5
 B0 FB 20 ED C3 AF F1 BE D5 55 89 1E 4B D8 8A E5
 32 33 09 D1 CB 74 CB 22 3A 23 3B A1 D0 B4 84 4E
 10 82 0A B0 9C 6F 02 E6 D7 C0 70 2A 51 CD C7 27
 25 21 43 8E CF 12 3F 3A C8 7F 5D B0 2D C6 CB 7D
 16 9F F6 64 6F D4 32 84 FC 85 83 19 5B A1 3B 4A
 2D DF 4F 21 E9 74 D5 13 AB A5 82 E5 E8 DC 16 38
 12 74 EB 29 92 B0 58 0F 6F 07 6A FD 29 88 EE BE
 E7 D5 33 75 A2 84 79 8C 77 8F A0 24 F4 64 3B B7
 29 92 19 C4 2B DA 9D 2D C0 C1 5F C1 BF 36 19 9B
 6A CA B9 A9 68 C7 36 F7 72 6C 4F 80 18 7B 6A 0F
 6F 23 5B 93 A0 09 B0 F9 FD B1 ED 4D 89 79 F9 CE
 21 BE 20 C6 FF 78 96 A6 B5 F1 5D EC C5 80 AC 10
 7D A6 6F E3 7D 39 FE 37 7A F9 2D E0 53 A8 99 AC
 9C 5E EF F8 46 D3 D1 0D 8E 92 3B F6 11 83 45 A1
 86 36 FD CF 3A E7 43 47 C9 49 47 78 EA 4E 44 A4
 31 19 E9 50 F2 E1 59 7A D4 F6 DA 03 04 C9 56 96
 60 65 3C E7 68 57 20 8F 57 E2 3B 45 2A 71 86 9F
 C1 CC 5E 3E 41 28 97 7C F3 E3 D9 A7 B1 99 60 F7
 A4 5F DE 39 77 C3 F5 11 24 FC 10 01 2E A7 E6 DB
 40 6F F5 A4 4B 6B DE 8A 2A CC 24 87 B1 77 B2 E9
 94 D8 62 2C FE A0 54 C9 B8 17 0F F2 82 8F 78 E9
 3C 3B B0 A5 5C 08 76 7D EB 33 09 7B 88 85 61 B8
 B2 69 58 D8 3F 99 5A EC 93 EC A8 17 B4 B2 E6 BB
 F1 25 65 6A BE 9F 60 9F 64 86 88 05 7B 96 9A 77
 A3 1A D4 CB 6A FF 8C 5B F7 00 3B 7D 7A 0A A5 94
 42 AD 89 CE 8A 15 E5 14 04 97 36 6E D5 3B 6C EF
 49 4D 54 49 C0 17 E4 43 09 90 47 91 36 5C 38 E7
 9B 76 E3 9A D2 7C 67 76 FD EE D1 F2 1B 60 E6 0F
 F3 D5 A1 17 05 F7 7A 5D 62 8E 73 BA FB 02 9F 8C
 BF 92 BD 41 73 38 82 8C 32 4A F7 43 98 71 CD 9B
 89 88 04 75 2D CF 66 6D A8 8F A0 DC 36 A7 52 8D
 91 5A 17 B8 40 AD 60 D2 61 BE F1 00 FA A2 27 C0
 4A C6 DC E4 9C 28 E4 10 B8 E7 70 9F 6F D0 FD B3
 C8 5D FE 15 50 AF 98 29 60 2B 37 57 EF 1E 4F C7
 C0 8F 90 9F 85 6D 86 91 81 7C CA 86 84 03 23 2E
 0A FC 32 68 7F A4 B7 0B 8E BE 96 DB 3A 9E A7 F9
 C9 27 D4 43 97 BF F0 DD A6 B8 93 95 C1 B5 CE DC
 D4 5E 2A 6E E0 38 5B 22 D6 38 36 B9 B1 65 23 DB
 74 83 DD 60 59 00 08 65 F4 7A C8 87 51 AA 21 F1
 72 7A 75 D9 E1 B1 40 13 D5 4A EA 14 94 15 E3 B6
 7D 18 CE 08 E8 58 E0 C0 8F 0F FA 9B 05 C1 4F 15
 E0 8F AD 1C 81 25 9D 49 F1 B0 E8 93 B6 19 18 37
 E4 17 58 57 39 0E 40 C5 0B A8 CD 95 40 35 E7 45
 29 D5 BE EB 91 0C 50 08 AE FB 70 B4 F4 7D A3 9B
 BA CC D0 20 DB 58 5F 64 DE B4 8E DE 7F AE B5 49
 41 C4 C4 64 EC A7 04 FE 87 83 6C B4 6C 4B 3D D2
 1E 16 8D 61 DA 60 24 BF 8D 7F 16 DD 9C 60 1B C5
 83 FE B5 B3 2B 10 5B 4A AA 51 73 03 55 D4 D7 BD
 75 82 AF 60 A8 9F 90 2A 27 9B 28 A2 17 8D 77 82
 05 9A D9 BB 95 2F 9A 79 9A A8 63 11 97 96 84 82
 86 33 5E 6D 95 3E 01 53 68 D7 D0 66 AD 11 2E AC
 A5 C7 B9 38 F5 F5 60 0C 6D 8E DB C9 FD 2C 5C 30
 0D C0 71 FB 6A FC 7E 70 20 62 3F 46 25 75 06 70
 50 F7 E5 F2 D8 8C 8A 93 79 0C 60 57 A2 57 57 D9
 F8 46 24 F3 27 FB 03 04 06 57 1D 0B BA 90 F2 65
 97 07 1C D7 0D A6 22 63 8D 35 47 BC E5 F7 9B 56
 3A 49 20 37 F6 25 9F 4B F2 0B E0 A8 D5 28 86 0B
 FD 73 76 28 0F 07 2C 4A 15 B7 F5 8A 7D 20 91 C0
 90 B6 C6 23 D2 42 F0 F0 5D 69 39 73 7C 10 E7 11
 B8 18 A5 7F 42 BD 7C 7C A0 A9 88 42 E5 A9 6F BA
 C9 94 43 CE B9 F0 5F 3E 5A 8A 4C BE 97 0E 43 FC
 4E 9C 20 A4 7E AD B4 75 A8 E8 BA C1 AE F6 99 0B
 99 DA B6 17 C0 16 83 DE 27 36 70 A6 50 E3 53 88
 96 AA 2F 0F DE 5E EA D8 F4 AA C9 B4 18 E1 A9 06
 BB D3 D2 73 A5 8F 83 86 C6 27 3C 8D 0D A1 33 0D
 36 21 E5 DF D3 88 5B 1E 02 6D 5E FA 27 BC 84 DE
 C5 DE 54 15 B4 38 78 54 CB 50 AF 62 15 48 BB A2
 60 7D E7 1D 45 81 9C 57 EC EE 86 A8 7B 5F 5A AA
 B5 0F 3A 57 7C 25 D4 65 15 6C 3D E5 60 8D 79 57
 4A E2 B6 60 71 43 22 B0 F4 98 5E FF 59 E6 5A 97
 B5 7E F3 E3 5E 1B B1 23 1D 9A CD 82 CC C1 86 62
 69 DB 3F 2C 9E BE 20 68 01 89 26 68 EF 16 BC F0
 E1 C4 20 A8 FE BA 9C 2D 86 6F A5 20 67 91 BB 5A
 88 54 0D 55 37 FD 11 2A 7E 7A 51 F0 1E 12 97 79
 12 9F D0 19 12 E4 C0 F0 6B 36 55 36 01 70 D1 D9
 E4 A2 D8 D3 7D 2B AD D1 19 98 CB A1 A0 77 31 1B
 A0 FC 90 1F D4 88 0D 6E BB D6 7C 0B 0F 83 B7 7A
 AF 96 7A B2 04 AB 56 CE F3 1F C2 68 67 09 6D 64
 08 07 7D 31 F6 EF 25 47 2B DF 93 C2 24 5B 47 D1
 C5 B4 CC E0 D0 82 6A 69 87 30 5F 23 6A 3B 2F 35
 75 09 DB 28 57 94 BE DD 71 89 61 8D F5 0D F6 4D
 28 AF 02 40 0D BE 44 FE 60 14 67 4D FD 70 50 CE
 0B 9C 27 9B A6 73 B6 E3 B7 CC 87 A6 4A 7A 11 2C
 AA 20 DE EA 22 29 08 B8 06 98 C9 A4 09 E0 CB A3
 70 A3 70 F0 44 9B 4A 84 9B EE 96 81 E3 67 CC 9A
 9E 58 0B 89 D5 E9 03 16 5A 34 E2 38 1E F9 9F 57
 0C 69 9C 37 10 82 53 FC 71 45 03 68 09 6D 34 69
 A4 4C 33 39 2B 76 68 F8 CF 80 DB C9 97 D1 BC 3B
 F2 00 4F 70 A8 6A D3 B4 65 67 FB 5C 9C B1 77 41
 6E C9 E5 0A 2B D1 0B D4 33 66 64 3A 6A 8F 73 BD
 E5 CA D9 6E F0 F2 36 43 09 55 34 F6 94 C3 25 06
 1D E1 A0 73 0E 5C 52 93 2A 1E ED F2 30 21 47 6C
 CD 66 66 26 36 EE BF BE 81 71 0F 06 8F B6 D4 2E
 23 54 FA 71 BC 1C 89 F3 77 D0 21 61 01 5B 32 10
 3C 23 17 73 2B 50 2C 3D CC 5C CA 75 7D 9A 92 8F
 99 91 68 EC 66 4D 3D 42 C0 F4 72 A6 D4 17 0A 09
 26 88 9A 7A 00 83 D8 C1 E3 6E C4 85 0C F7 5A B1
 86 DA 3C E8 7E 06 7F 38 A7 11 8A 06 D7 24 93 61
 88 8A 11 6E CE 29 2B F4 D9 91 2A 48 94 44 21 FB
 CB 7F A2 6C 6E 71 EA 22 A5 1C 58 CC E1 CC 0A F7
 D6 42 95 37 1F 69 B8 7C 06 79 64 42 F4 FF 25 33
 3D BC 86 90 EB 40 30 D2 A0 62 BE E5 1A 97 13 6D
 CA AB A2 6C 6D AD 8D AB 13 13 B3 94 F2 17 72 7D
 3B B1 36 C6 D8 2A E5 51 0D 77 AA 22 82 5A 89 2B
 37 B7 8D C0 FD 22 69 ED C7 33 3E 4A 86 AE C8 11
 3C 7C 1D 26 A1 C9 6F 04 59 EE FD 6A F1 7F CB C3
 34 77 A8 20 0D 9E C5 6E 16 6D BF 22 95 4A 16 E3
 78 AF C5 92 38 E4 51 E9 43 5F B7 34 2A 31 97 9F
 52 DA B0 11 EC DA F3 4D 63 1F B0 41 DE 19 E2 D7
 5E CF FA CB 98 7A BC CB 53 C2 4D BF D0 7E AB 94
 66 F7 49 52 F5 B6 98 82 79 30 BB 37 05 B9 4C 2A
 92 95 5D DA 6D 7D 87 7A 54 B4 C0 7C DE F1 10 29
 97 76 60 90 BA EA 83 C7 D2 51 8E 05 DA 69 65 FD
 7E 0C 2E A8 45 48 D4 BD AF BE B2 A1 37 CA C4 3C
 A5 85 51 D9 8C CF B5 54 87 4D 2B EF E5 D6 2F 91
 2F 29 9A B8 AB 0C EB A9 A7 03 DD 5D 55 80 1D C3
 E4 ED 12 3B A1 6A BF 90 95 9B FD 5D 8C 18 33 8F
 80 44 27 60 84 2B 15 F0 36 D4 FB B5 C2 68 C8 22
 F6 8E 47 B3 88 33 67 94 89 5E 76 B8 6C 02 74 4B
 F2 BD 15 42 CD 77 39 FE 86 28 3F A5 01 CD DC B4
 D1 BF 3F 5E 9B 37 53 67 15 8B 0E CC 1A 5A C9 25
 4B 86 63 6B 59 D3 39 62 FB F3 AE CF EC 23 83 F3
 22 E4 A8 E9 42 53 D6 90 6D 40 6D EC 20 E9 41 EF
 44 CD 08 71 E7 32 A6 4D 0B F8 69 30 85 13 50 FC
 0B EC 90 57 B7 8F F3 2E 0D A2 95 E5 DE AB AB EF
 14 EB 70 9F 00 C7 65 3D 23 38 DB 96 AB 70 EA 2C
 54 B6 08 62 84 F9 3F 06 4F 5C 6B 54 9A 35 2B 83
 23 E8 24 23 02 B7 8D 08 88 E1 6E 54 EB 81 F1 6B
 D9 4C 17 BC C5 25 18 92 54 1A 6C 7B 28 8A 0B 93
 06 5D 31 3F A0 D4 56 EA FF 8C 29 EF 86 C2 95 71
 06 48 3C 63 71 53 1B A2 1A 15 2E 16 F5 F5 3F D8
 8E A4 62 01 66 8A 02 C4 B9 A7 B7 BC 48 7A 60 F2
 73 3D 1F DA 53 89 6D 57 B4 25 9C 08 FE 7E 47 4E
 8B 6F 14 52 3E 6D 2B 7D 82 53 DC 5D EB FE 7A E8
 EB 67 05 8C B8 B6 DD 66 61 8F 4D 91 8B 75 43 76
 EC 7B 87 9B 5D 59 A1 98 53 60 B9 5F E9 90 5A A3
 DD F4 B5 C0 85 3A F6 4F AD 5D D3 96 44 A4 97 91
 FC 34 67 39 FF C4 91 AD 57 00 46 5C 64 83 A6 83
 5C A3 59 2C 17 A3 10 40 06 9B B2 13 42 64 A4 63
 85 20 2A 3A 90 6C 38 A4 55 E9 03 C7 DB 37 AF 68
 94 06 0A 66 C0 21 1A 73 62 4E 4B 8C FD 8E 60 90
 5D 92 8D 42 9A 5D 51 D5 52 0B B1 9C 75 21 2C D5
 C1 19 62 A7 2C 2F 9B 74 13 BC 1F 82 8B 5E 17 17
 4E A3 31 E6 08 52 16 16 CD 81 98 EA 1A 95 CA B3
 7F D7 3C D6 CC A1 2E 29 F1 E8 EA 22 D1 07 E2 B4
 79 52 89 21 E6 89 AF 66 39 FB C6 C4 43 DD 60 A6
 0E 7B DA 5D BC A3 50 07 20 68 6C E6 91 A7 67 DE
 D7 93 27 FE D7 35 96 9B 56 AC E1 7A 23 BD 71 BD
 8C 4C 9A A9 40 C7 42 CE F7 7A 8C A1 99 82 F9 E7
 90 9A A7 84 DC 1B 86 76 A7 27 51 3A 50 BF 27 4A
 7A 6B DB 1F 86 78 96 04 50 65 C7 6B 60 88 5E 49
 7A EC 46 5D EF 4B BC BE 02 FD 2B 30 7E CD CC 87
 CE 8A 70 58 B8 1C 3E 7A 0C 7C FB F3 A0 0E E7 64
 8E 4D 94 22 73 DE 39 2D 7B 97 C1 32 3B 9C 3E 9F
 5D 30 86 A2 CC A2 58 F8 2C 15 5D EF 66 B9 FF 9A
 7D 36 FE DA 26 D2 58 E0 31 1D EC E2 D4 12 1A 46
 68 1B 63 84 17 E2 1D 99 DC D4 EE 37 18 C3 2D 25
 24 34 4D A5 23 BA 3D 15 8B D2 DB F9 7F D1 0D 9E
 8A 7F 64 F6 76 6B 3F 3B E4 35 8C 4D BA D9 D6 6E
 C8 86 EA EA 61 B7 46 A5 B7 83 17 10 F9 BB 20 F9
 EF 28 9E 93 D2 74 59 58 F8 95 92 7B BC 09 AC 4B
 B3 0E C2 0F B6 78 A7 3D A9 77 1A 85 2E 4E C4 30
 DB 1F 92 A2 9D 00 50 BA E5 E3 35 44 02 47 2F 36
 0D 0E 10 13 7B 8F F0 7A A9 F8 37 C3 93 B2 81 66
 84 6C 4B CB 99 13 8F BE CC C3 E0 48 1C 77 49 48
 84 C0 B4 18 47 F2 6C F9 E7 52 D9 29 92 39 86 72
 56 50 D7 CF F4 13 9D 9F 26 C9 01 B9 88 3A BD 3E
 95 7D 83 15 FA 84 08 FB 54 94 BA 07 03 98 98 66
 92 CD 3C D7 C5 10 9F 81 CF AE 3E 43 95 6D EA 49
 E3 A3 B5 BA 88 A2 D3 67 FD D6 67 76 98 69 88 F8
 46 B0 F0 F7 DF 60 59 C0 59 69 D3 E0 65 FA 3B F0
 12 4C 04 20 9E 8B 8B A6 04 21 90 F1 01 97 77 94
 6E 8C 8D 36 C9 E8 BC E6 7C C4 93 E2 92 03 B7 DA
 56 BD B2 28 D5 CF E2 D0 4C 6C A0 44 D6 28 F2 F6
 68 3A 1E 39 C8 8C E4 29 F6 51 16 FA 08 D9 20 20
 42 7C 3D ED 38 50 05 1B 7B 90 EC 8F 01 FD 55 53
 C7 C9 02 15 3E 93 A9 77 F9 21 B9 7C 65 37 66 51
 32 62 8B 95 7A E9 E8 83 FC D6 70 9F 00 BA 40 8A
 B1 65 8F 61 64 07 B2 D4 3B 4D 55 5F CF 42 9E 88
 C8 7D D6 94 72 1B 61 0A 44 71 32 AE F3 94 84 0B
 23 71 06 1D 11 9A CF D9 91 7B B5 6D 50 EB 44 E0
 93 61 80 90 E4 47 31 F1 55 49 3E F9 7A 67 B4 FF
 1D AA 63 EC 6F 02 5D B0 50 0A BD A6 01 CA 99 5C
 42 3F 8C 32 50 73 28 56 C3 CC C1 5E 74 FC B6 5C
 45 98 7E 33 49 8E 19 2C F5 CB AF 87 6C 0A 3C BA
 1E 5C 87 67 EE 95 1E 83 1A 64 A7 43 5D FD B5 61
 53 FF 4A 0E EE EC 88 D7 2F 2E D5 A1 27 F2 B8 C0
 F4 E7 FA 05 C1 0B 4B 18 7F 8E 92 BE B5 9F 60 7D
 AA C1 44 2C B9 1C 82 AD DA F4 92 4C AE 9A 57 C1
 AE 7F 50 81 60 B6 83 C1 04 54 E0 04 AF 2C AF 00
 A6 EF 48 BF C7 B2 A5 00 39 BE 23 C7 33 16 C1 BD
 6B 83 90 5F 59 46 C9 76 3E 0B 23 A9 E4 1A 54 BB
 EB 44 73 20 FC 1C 74 23 8D 4D E9 A6 55 5F 76 01
 0A 99 D5 15 0E 00 3D 8B 2F 24 A7 65 48 07 C8 CB
 E1 78 33 E5 69 A0 31 1A 70 4E 77 2A 57 2B 5E 1B
 FE 28 85 59 CC AE 86 E0 42 5C E6 35 80 69 E8 F3
 ED 46 E4 3F F7 6E 29 99 CF 9A C9 D0 1F 27 2E 57
 72 34 87 2A 82 67 87 C5 31 51 2E B4 14 17 68 5F
 D9 9E 0B 75 12 AD 37 A3 37 F6 4B AA 4A 67 3F 9A
 91 9A 88 C3 A9 5D 43 99 56 AA BB 9F 2A 62 19 F7
 A4 35 C0 6F DC 79 F9 CB CF BD 4C D8 8D 64 58 38
 C3 86 C5 23 4A DA 66 5D 56 D8 9A 66 16 3E DF 1D
 05 8E 04 13 4F 70 34 3D E4 E4 F2 E5 7F E1 5B AA
 4B C6 58 FB 89 90 50 C9 56 7E 42 26 EC 54 E8 19
 E4 7F 9C 0D 84 C8 F3 79 F2 B1 07 7E D1 9B 0F 9E
 1E EC D4 06 9D 8A 1A CB 44 39 6A 78 D4 F1 B1 04
 1E D2 C3 6A A3 1F 0D 99 26 E9 ED EC 92 C7 76 98
 91 3A 59 86 CE 70 0D A3 7A AB 8B 4C F3 52 30 57
 FD 36 BC FA 8F 57 F8 BA AA CE 0F F9 D3 2B 00 24
 84 4E D4 A4 F2 B3 94 75 0E B4 B2 06 C0 6F 37 83
 17 D5 78 89 09 3C FF B2 E9 A5 50 31 F9 D3 1C 81
 56 D6 F8 FA 65 89 60 FD B5 F6 25 D6 45 F7 49 FF
 48 DB FC 61 DD A9 03 0F 16 31 9C 42 0B 40 5C 13
 32 60 35 B3 34 17 EC 54 6C F7 94 2C 70 DF A5 BD
 1E 7F 74 E0 D5 89 B5 E9 60 53 61 BF 89 FB D6 73
 DE FE EB 89 C1 D5 E5 BD CD C7 D8 95 00 AB 80 E5
 7C AF F5 94 86 FD F9 99 0F CA C1 5B 1A 8C F7 44
 71 C2 26 6E 15 35 11 FA 29 63 CA A7 C2 04 71 F9
 18 49 61 33 AF 54 35 2C CF 30 CA F1 BB 11 0E 7C
 BB 64 50 99 A4 13 34 92 48 2C B2 D6 5B E4 2F 86
 C1 99 22 56 04 77 EA 6A EF 9E 30 D4 6F 23 FD F7
 35 9E F9 FE F4 AF DB 5D DE 4A DC B5 8B 52 57 0D
 E1 24 CC 01 AB F2 57 A5 6B 04 2F 58 7E 6E BF F7
 F3 FD 26 EF E6 48 1F 63 D5 11 2B E3 09 7C DD AC
 B2 FE 2D C2 01 85 C0 CB 7D 39 5E 34 07 25 3E C5
 A3 0F 07 B5 90 6E 3B AE A3 95 36 BF 7D 3C 29 B9
 3D 26 02 39 5D 40 C7 65 A1 64 CE 87 99 F0 43 DF
 11 BD 5D 81 EC D8 71 A8 23 2F 00 66 5E 0A 65 82
 21 49 26 1B BA 3F 8E E5 88 0E 71 94 42 3D C0 4E
 59 0F BE 90 5D 08 E4 0D 59 1D D3 1C 18 17 6C F7
 93 8C 85 E3 F2 6E 87 4E 1E FF C9 C4 A7 84 2B C5
 CC 5A 9C 46 3E 59 C5 BB 87 BE 5B 15 58 CD 44 DA
 C1 53 31 D3 ED CD 48 BE C4 62 D2 3C 1D 66 9B E3
 B8 57 F5 89 A9 EC D9 34 EA DF 24 5F B6 3B D4 3C
 B1 E7 C4 CF E4 69 05 65 C6 18 5F CC 51 E5 91 F8
 44 45 3F B0 64 25 3C 3B 27 11 FF 4D 76 93 59 0E
 43 70 10 30 00 48 CA 8B 01 74 E0 BA 1A 36 52 24
 79 1E E9 AB 57 8A A9 BE 07 C5 8C 23 AD C4 B7 D3
 71 0D ED 50 50 C2 50 20 73 BB CC F2 55 A8 DB 34
 C2 D9 B6 3B 88 FC 1B 0B 2F 1F 1A 26 B5 E0 40 0D
 AD 8C 22 4C 12 19 D0 60 2C D5 3E 28 FE 63 B8 8A
 9E 93 31 00 F5 0A BD AB CE 92 F4 9C 0C 37 85 B4
 B5 05 28 34 8F 71 7F E5 16 83 F8 BB 3A 2B B9 34
 39 8B D6 76 BA BF F4 4D 4B C0 E3 2C 49 A6 B9 0D
 94 2D CA 4B B9 12 C3 8D 4A 7D EC 2E A2 A6 9F 00
 17 BA 8B 3B 60 0D EB 56 8B D8 37 97 53 8D 29 85
 75 BF AE 90 B7 10 B3 1E 30 3A 84 EA E1 9E 49 45
 21 6C B5 53 F5 28 6D 85 FE E8 07 7F 11 79 88 05
 9C BA 02 F5 8A 5D E7 5B E1 6B 63 7F 2D 5C 8F 8D
 1D 4B 5B AA 77 EF 7B 25 C6 CE E5 98 A4 03 1B 18
 A9 A7 2A 95 7D B3 ED 03 E9 55 3B A4 7D 9B E2 AD
 43 A3 AA B8 35 A0 67 C3 49 7B 83 19 7D 95 9C 15
 8E DB AD D6 27 3C 5F 5A 5A C8 C6 67 DF 74 A1 E5
 02 92 DC 1B 4F 33 07 5C 6A 9F 35 76 49 2F E8 FF
 F8 3D 56 66 A3 F4 DB 84 55 90 03 F6 67 74 CA 97
 2F 47 26 21 C0 0A 88 C8 AA CD 3D ED 79 4F 68 D5
 88 68 4D 6B AE A5 30 ED 84 91 5C D4 45 51 57 57
 EF F6 EF 51 2E E1 2E 4B F0 B0 F9 9F 57 77 1F 23
 C0 6B D9 7F 18 6E 94 18 E1 28 C1 5F A8 47 C2 82
 F8 8E 79 F6 6C 07 81 17 4D 46 C0 E9 AE FF 85 54
 7B AF B4 96 AC A4 40 61 6E 80 3E 52 CC 36 1B D5
 3B 82 B3 82 78 2A F8 59 66 47 B2 85 01 08 89 2F
 3F 0E 43 53 A8 6A 5B 11 0D 62 80 A0 EE DB 64 C1
 03 03 B6 F1 B4 F1 29 B0 ED B5 2D 5B CC F5 08 03
 D9 E5 DD 0B 5D 1A 71 16 38 2B FF 87 96 AF B0 81
 96 D5 90 E6 5A 16 FA F0 66 88 62 AA 6A 92 34 2F
 D8 F8 C2 74 DE 78 22 B8 92 B5 DC AD D6 C5 39 B5
 71 F2 68 72 81 C3 52 0D DE 2F C5 A0 E6 5C 42 EF
 0B 9A 43 03 7F 43 A4 E1 F0 21 71 AA A1 11 35 FF
 B7 81 2B F6 47 BC 01 55 C6 95 CA 37 66 52 9D A1
 34 9F 36 7E BA 7E 0C 49 62 D8 EE F1 45 04 F2 51
 0D D2 91 F0 50 B6 7F D6 74 31 44 F9 02 01 1E E4
 5B 29 24 F8 B7 C3 98 74 85 06 FC 2B 73 E1 52 71
 A4 3B 52 96 DA E5 BB 85 AC 12 32 7A DE 1E 7D FD
 51 9B CA AD 3D 3D 9B A9 C4 A6 28 AC CF 8A 86 D5
 80 76 FD CA 03 A5 E9 4D 36 94 C7 CF 3C 28 8B B4
 E3 90 71 ED 94 72 23 DE E6 6E 5A 5B 9F 94 70 77
 49 BF 38 ED A1 FE 51 A7 2E 20 03 63 9E 5E B0 A2
 D8 7A 9F 5E A2 5E FD A0 F5 2B B2 8F CB 47 06 0A
 2E 70 6E AD 4C 49 F9 CD 2F AF 18 40 6D CC F9 30
 DD 02 C4 BB FF 00 19 0A AE 80 32 7A 52 9A 40 4B
 76 F9 B8 B4 C8 8D 36 D6 AF 11 25 AE 3A C0 14 58
 61 73 0A EF 12 2A 57 5A 1A ED 7A 5E 65 A2 C8 56
 CE 07 25 B9 20 14 3D 33 2E BD 24 90 4C EC 5D 5B
 E4 63 9D D6 66 0C A3 86 E6 A4 89 84 9F 76 5E 4A
 8C 5E B8 1E B6 16 89 B4 AA 0A 66 0A 2C 6F D2 B6
 66 89 51 06 F8 1E 3B 3B 2E 11 43 27 7B 32 29 E2
 57 DB EB D0 FC 36 DC 45 96 F6 F7 FF 64 5C 93 ED
 7C 79 A5 AC 06 10 0A D9 12 98 64 9B BC 57 C9 FA
 AD 07 CB 8B A1 B8 4C 61 FB B0 93 D3 CE AE 61 4E
 A2 E4 A2 38 94 31 B9 AC B9 AB 13 81 40 F1 2F 86
 72 50 BE 2C 1D E1 36 BC 82 45 A8 A5 46 81 6B 08
 DD 18 E0 77 89 B6 D5 71 20 65 8C 3E 68 12 8B CA
 3E 74 6F 65 61 44 84 2A 1F 49 CB EF 47 8F 07 5E
 8B 7A B5 39 6B C1 2E 1E F0 74 9E BB CD 11 4D A1
 F7 27 04 EE 9D 06 51 0E F1 1B B4 2F 90 42 60 05
 C7 64 80 0B 60 19 36 F5 CD 2E 10 7D CF 5D 2F 3E
 22 43 66 4C B7 46 D5 31 01 08 95 FD 93 78 B9 11
 A9 77 89 44 7F 86 9A 5B 51 5F 31 F4 8C 47 ED A6
 D6 CD 0E F7 AD 6C A5 C7 BF AC 7B F3 6C 65 B0 3C
 0C 76 8C EC 91 46 C3 18 FA AB 8C 00 7F 36 73 47
 6C 60 CB BD 6F 5A 5F 10 F6 4A B0 6E C2 40 B8 FE
 BE 2B AC 0A 24 3F 4B C3 55 BC 11 C9 6A C1 78 64
 21 B7 44 55 DC 04 0B 57 51 9E 60 9C 4D 5B D7 AF
 33 60 A5 AE 17 59 AE 67 8A 11 98 77 2A B7 87 74
 57 4F 85 83 07 24 E5 62 17 D8 1C 07 CD E9 80 B1
 3F F5 D2 C8 3D BC EA E0 0D 0E 85 29 76 7A BE 90
 87 71 6C 60 22 C4 C7 4D 5C F2 B0 28 D8 1B D0 12
 3D CD BC BC EE 98 63 0C 1C 00 62 14 19 13 54 11
 6B F0 60 BA 30 C3 2E DB 61 8B E7 DD FE 13 F3 F5
 B9 0B 44 1D A9 21 11 F5 25 4E F8 F6 8D BA 3A 7A
 1E F8 09 EC 22 1A F3 F7 99 75 86 0F E7 11 C1 4C
 61 A5 42 86 E9 D7 51 91 A4 06 EF 8C 2D 99 8A 8A
 B0 42 44 91 6D 31 F7 C9 F4 14 FF B5 01 2E A9 A9
 CC 82 5B 54 07 F5 8F 24 A3 58 FC CC 53 4D AC D2
 D5 D2 C6 66 BF D8 E8 F0 E7 51 A2 B8 F3 65 FF 73
 82 50 8E 17 8E D3 71 90 A9 9B 65 1D 45 96 08 82
 A0 AA 44 CE 88 38 65 E7 CE 48 4A 3A 68 76 8B 2A
 FB B3 59 1B E9 E2 DB 13 29 0B 62 F6 BE 29 E9 63
 CA AF 6F 98 7A EB ED F6 10 C0 A9 69 C0 68 FC 1D
 9B 0F F7 22 1B AD C4 50 B1 8E D8 51 BB 91 AB 3A
 64 3F 51 8C 3A 29 BE 35 D8 67 6F 2E 03 69 BA EB
 34 2A 93 85 4B 7F E5 52 CE 64 1A CD 46 26 39 39
 29 0B A6 D2 4A 6A 22 6F 67 6B 80 B3 FB 92 04 8E
 B6 E7 22 48 02 D2 31 AF 3E 15 49 05 7E 12 D6 D1
 B4 F1 EA F0 D6 71 CD 49 F4 35 6E 71 DF 75 54 71
 F6 EA 23 74 CD 22 D2 CA 5A FA EB 9B 40 30 C3 25
 4D 3E C2 F9 92 D7 34 FC 12 21 0A C0 9B AD 59 09
 E9 F4 85 6B CF 4E 2B 8B 34 31 8D 66 CB EA B8 2F
 A3 A8 26 D2 1F 77 54 37 38 FE F1 4F 00 B2 72 61
 8F 81 4C AA 66 CC E1 3C BD 42 97 3C 41 93 E0 B0
 CD BB 96 FB 90 35 6F 13 4A F1 B1 3A 67 E4 E4 A2
 EE 88 DE EA 63 A1 EB 45 04 88 1F F4 24 CC 0A BF
 16 D1 CB BA DA 87 D7 9C E6 9A 00 08 7B 6B F1 E8
 81 16 58 F6 09 AC 24 AD 89 BE DD EB 41 64 2C EF
 0F E2 8C C0 F3 5B 4A BF 75 D4 18 0B BF 04 23 9C
 EA AC E4 32 0D A3 1E F3 9B 39 8C 07 BF 6E 1B 71
 77 DB A3 FA D5 23 48 65 AA 2A CE 3A B1 72 9A 2A
 CA 4A 2D DF E7 93 45 A0 A2 74 9F 6E 41 98 D5 40
 FC 71 04 D0 D0 0C 57 0E C2 4A F9 34 45 49 1A E2
 A9 9E 70 DF 70 2F 84 5B 20 70 B5 81 D4 55 A7 5D
 50 BE 8F 3B BB EE 80 2C 60 DA 8D CF EA 7F 2A 33
 C6 32 8A 76 A2 25 84 90 7B 14 60 56 B5 64 E6 E0
 11 A0 34 09 08 8F CE 90 E8 C2 32 14 FE E9 2D F8
 18 25 03 A8 C6 D8 0F 96 FC 67 0B FC 48 45 BD 63
 23 C1 BF DB F7 B9 AA E8 7A 0D C1 FB FC 6E D5 B3
 68 CD D0 55 A4 C5 29 CD A0 7C A3 96 ED 97 99 D5
 FA 3E 08 E9 22 7F D8 D7 3C 56 E3 EF 19 C4 34 48
 26 F2 9D 7C 7B CD 59 AB E9 2C 30 F1 9B 95 87 9F
 AC 95 0A 3F A9 BC 3F 41 28 37 D9 6B 53 C3 83 44
 78 CD 65 52 B3 B6 CE A1 00 05 8B 9A A1 F8 C4 04
 AE 04 2C C3 28 E6 F3 C1 CD 87 D5 96 8B C4 79 42
 AC 7B FD 13 20 C1 11 06 26 63 23 1B 68 FC 10 15
 4A AD 8F D2 D4 5D D0 2A 9F 1A C5 01 CF B7 77 9A
 3E 93 13 0B 01 77 7A 9F 34 9C 8C 0C 66 03 35 F8
 D9 24 F0 35 DD FE 7D 5A 74 41 7D 59 31 B4 61 2A
 54 44 0F 6E 35 2A DF 49 D3 30 4A DA 29 09 5B 28
 88 5B CB B9 C7 4C 3A E8 94 0F A4 4B 6C 98 97 1F
 1B CB D0 E3 5E DC 51 EA D7 D8 5C E0 9A 30 BE FC
 B1 03 AB EF F8 3E E3 05 4A 0A 7A 7C FA A8 14 02
 5D DE 3F 98 AE 10 B4 9E 84 5D 24 DB 5C C2 DE A2
 E1 D0 CB 68 F4 71 9A 27 3A D8 25 E7 56 12 C0 DC
 54 4B 1E 18 9F 9D 10 11 CF 97 86 32 3C BB 5E 5D
 DF 2D 81 27 A8 56 F1 4F 18 6E E8 56 8D E6 38 7B
 9B E1 98 0F C0 6A DF 72 80 81 0F 16 75 E7 02 67
 33 53 11 05 87 7D 15 35 30 28 2C 83 CE F6 A4 D8
 7B 9A C4 F6 AF E1 49 2E 6B 28 D8 55 EA 41 5C 46
 BB A3 7D B5 78 15 AF 28 B3 30 02 7E D0 66 32 CC
 FA EC 7E 02 0D BF 78 C1 DB EE 91 DB A6 47 5D 9E
 9E 48 80 0C 35 8C 0E C2 6E BF D8 1A C4 63 00 08
 5F AE 5D 1F E8 FC D4 CE 0A 77 46 C4 40 00 23 17
 68 8C 87 81 B3 30 46 1E 66 CD 0E 80 1A 93 B0 F2
 75 F2 94 60 07 1C A4 0C D2 B9 6D A1 A3 51 8C 8E
 3C 79 05 99 FD FC 11 5D 69 39 B4 5A 82 32 C4 4F
 82 8B 0E 1F 91 43 C0 63 6F 65 B5 B1 60 56 29 3B
 F7 F7 E9 41 36 0E A8 B0 8A 3F 27 F6 71 B6 79 68
 C9 6A 72 49 80 28 84 4B 81 C1 06 0C B2 AE B5 02
 DA A7 D2 4B 7C 4B 9B D2 9A 28 4F A8 5A 2A 3C E2
 D8 B1 15 92 7D 7C 90 E7 D2 36 8B A9 40 D1 87 7B
 0D 02 1E 55 1A 9B B5 D7 92 66 3A 44 90 F6 8A 20
 55 7E 82 A3 AC 3A C8 86 73 CA 0E 8B 81 CC EF D9
 61 16 48 4F C0 61 86 24 02 23 7F 99 11 AA F1 6E
 09 73 8D 54 14 55 7C 0E 66 A5 88 05 4E 69 69 EF
 B2 C0 68 93 E2 B2 AF 7D 69 CF 0C 3D 2D C1 35 09
 3F 7C FE 7D 67 3D 72 5F 82 BA 0B 57 EF 6F EF 04
 82 41 11 9A 29 2B AB E9 CD 2A 72 65 92 A5 64 30
 01 41 63 EC 67 B2 3F 1D EA D4 6D 72 48 8D 3C AF
 BE 9A 52 88 68 46 81 D8 5C 8C 33 30 33 A4 A1 A9
 46 18 10 61 F3 3F 27 82 99 F0 25 EF ED F6 A6 07
 E7 D1 51 86 B7 D8 FA 19 0A D9 85 B1 13 3F 9D A3
 0C 20 34 3E 2A 60 73 09 67 3B A5 12 CF 6A E8 F0
 82 13 FB C1 29 61 C8 43 0E 8A 1F 35 4B D6 05 6D
 3F 31 DC 26 45 79 65 CF CB 46 3A 53 01 DD 93 54
 67 AD B2 18 E1 5F 6E 90 F9 BA 67 CE FC 29 39 A7
 7B EC 33 5F 66 09 A5 06 00 D6 CC DD 86 D6 95 D0
 72 F2 96 E3 74 DC AC C1 2D 91 C8 BD 8D 33 43 BF
 E7 36 7F DE B6 22 28 EF C5 55 39 D6 0E 81 84 38
 8A AA 23 0A D2 BE 66 D6 8E 42 60 CA 68 83 BE 5D
 A1 C3 B2 9D 78 C7 06 C6 D5 8C B8 2B 3F 23 5F A2
 81 3A A1 2B 29 0F 70 50 21 BA B0 45 6A C9 DA C4
 B0 55 7C FC 6F 19 C4 8A A2 6D 9E 80 4D 2D 0F 11
 2C 2A 3A 25 63 D9 ED 06 4B FF 1B C9 E3 01 01 F4
 1A 51 E0 2C 36 B4 BD 00 EB DC F3 AB 51 90 4E 0A
 25 88 EA BB 1E 8B 5F F1 C8 DB 90 A8 CD D1 4F 99
 EC D3 32 BF 75 71 88 02 50 9E 21 16 FD C5 98 D6
 B8 C2 DB F1 CB 2B 2C E3 09 15 C5 B9 E0 09 5C 74
 49 F2 F5 A1 F9 E0 D6 FA 1B 37 42 1C FB C8 5A 96
 45 A4 A4 DF 66 54 BC 38 EE F5 6D 19 F7 10 6E 7D
 D1 1F 2E BF 3D 49 3A A4 6B F4 B6 C3 A1 86 2F 7B
 B9 3D F5 4E 47 D4 66 F8 27 56 3F A1 70 99 EA 8C
 C2 93 11 A7 44 23 29 72 3A A7 D4 BE D9 C9 48 C8
 13 AE 38 EC 09 F0 3C 5F D0 6C 4D E3 BB DD 5B 85
 B4 E3 D4 14 73 26 FF A8 EF 66 A2 93 3B 9C F5 4A
 C3 8C F5 D2 31 1E 5A 42 93 76 95 0C 14 30 C0 C1
 5E D0 CF 19 D4 56 BC 4E 54 11 B4 B9 A3 12 26 74
 E5 CD 2E 18 D2 8E 0E 6D 40 94 78 79 6C CB D2 0C
 5B 08 4D DA 8A A9 CE 70 F6 4D 60 4C 04 B3 15 3A
 A4 7F 68 FB 4A 39 85 50 3A 0E 9C 08 66 25 CD D6
 72 FF 72 39 A7 BF 74 24 86 1C D3 BC 36 65 20 AD
 52 4C 5E D7 68 A8 8E A6 B0 F3 6C 5A 06 21 30 EA
 A8 F4 45 D1 F8 14 19 91 44 E1 7B E1 5A 21 A8 9E
 C8 0E BC BC B4 BC AC B3 05 95 4A 80 C4 98 C9 07
 F9 07 38 10 55 1A 7B A1 26 FB D4 1A 94 D3 0B B4
 0F 50 00 31 3C 10 AC BD AC D7 6C B0 3C 97 19 EC
 AA 01 55 11 69 55 4E FD E6 E8 9D 55 3F 4B DC 88
 BF 82 AA FC 6F D3 1A A9 DD 15 3E 51 8A 94 C2 C9
 50 D0 B3 08 51 37 70 09 4B FE 1F 18 1C FA DB 87
 3A 0F 63 2E 5C 96 4F 72 27 23 22 7A E7 2D 59 B2
 3C 63 19 50 B0 11 36 01 98 38 66 C7 C4 28 A7 0E
 51 C6 C2 04 7F 6A 7E F0 3A 57 30 6D 3C 2C 03 26
 49 38 67 AB 7F E5 09 3F 41 D0 62 FD 2A E0 8F A7
 C7 87 92 E7 6F A1 A3 11 A4 41 FF 2B CB 91 7B 00
 FB 64 4A 76 9A BD 72 C9 3A 14 55 71 40 E9 B3 17
 AF B8 52 27 4C BF 07 97 E7 F0 C5 F5 CF F3 43 57
 37 4B DC 10 ED 29 2E C6 51 B7 7B 85 27 FD F7 2A
 B3 4D A7 96 01 43 A9 1C 31 10 43 F7 DA 8B 90 E4
* End 45908973 120407390