* LTspice Encrypted File
* 
* This encrypted file has been supplied by a 3rd
* party vendor that does not wish to publicize
* the technology used to implement this library.
* 
* Permission is granted to use this file for
* simulations but not to reverse engineer its
* contents.
* 
* Begin:
 D2 1D 4C 71 0C EA 68 4D FC 75 CE A9 3F 2F 60 E6
 9F F1 02 87 6F 71 6F 2A 32 C7 95 22 D9 39 D3 65
 16 F2 D6 24 C3 10 DE F6 B0 65 C7 A7 65 88 59 6A
 BA 68 FE B9 C4 E3 DB 93 C1 45 C3 EB 34 C4 73 B6
 C8 50 95 4A EE 1D 36 F3 E7 E3 1F 95 73 2C C2 C6
 C4 C8 9C 2A 34 2D 4D EB 28 89 23 88 7C D6 67 F9
 DF CB 53 DC 35 31 D8 D7 03 0F 23 A3 7C 72 C7 18
 DC E7 AB 34 1B 46 80 08 3D 0E 7A 30 90 70 EA 05
 76 F3 07 EB 41 1C 34 A0 C3 4E 99 11 9C 5D 1D 93
 AB 0B 30 5A 26 7D 6E 11 9E AE F5 B9 DB 70 BF FC
 70 2B 45 C4 1E 67 AD EC 4F A1 64 CE 70 FA AA 73
 C2 1C 5D 54 E0 E5 C6 18 B9 EA E0 9F 84 0D DA 6F
 C2 92 1A 90 5C 59 84 AF B0 62 4F 99 F9 76 EC 44
 69 AA B3 A0 74 70 4F 09 8A 15 4B 41 20 B7 87 7E
 4B AB 0A D3 C0 6C 7C D6 E7 45 CF DD 0F 23 76 8A
 64 9A 65 0A 7C 8B CC A9 CC 4C 90 7E D3 DB 79 59
 72 3A EF CC 26 5F 97 FC 88 91 22 FF 02 3E C9 4E
 F0 8C 22 81 8B 9B 8C E8 F3 FD 23 1A DE A0 51 5E
 76 44 2B 1C 69 CC 5B 6A E8 96 B2 36 59 3C AF BD
 FB 7A D0 AC 4B 23 68 C1 2D C5 F9 51 D0 7E 80 1D
 86 F1 33 54 40 B0 CB 57 FF 9D 82 75 FB A8 3F 06
 97 2F 52 11 4D BA 33 D6 47 36 1C BB F1 F3 57 6B
 40 17 B4 4A DA B7 78 59 3D A7 2E 0D E4 80 82 53
 36 02 AF 21 76 48 5C 43 D2 EC 79 73 38 82 68 2A
 C9 FD F4 DA 09 53 3E CA 68 A7 41 2B 2C 5E AE 75
 4A DB 20 60 95 27 84 FF 43 C7 A5 D8 79 D1 6B 77
 30 91 B0 15 AA 10 47 19 B7 40 06 41 53 47 A6 22
 21 3B 33 D4 6D 5F D5 F5 B4 AC A5 20 D1 7E F1 0A
 A8 8A E5 9F B4 48 AE 24 3D DA D1 FD 60 C1 96 6C
 9E 4A A0 9A 6B 22 F0 F5 06 E9 FA C3 10 DC DC CE
 93 86 4A B6 82 E6 49 71 CB F1 F8 FF B6 52 43 17
 95 56 AB AC 43 A8 06 86 A2 05 9E A4 32 F6 F3 1D
 28 BD 91 5E F6 E8 8A 17 DD AE 8B 63 F3 14 25 CF
 E0 70 27 10 79 67 36 85 A3 74 7A AF 19 6A FF 10
 35 7F 47 5F EB 73 B4 E5 91 66 41 CF 5B 37 85 ED
 1C 75 85 1F 56 C8 38 A6 DB 50 C4 01 83 24 FE 57
 12 25 F2 F1 4E 44 DC D2 F1 98 E8 4D 6A 62 E5 89
 AC A9 BC 37 1D 5F 61 3A A5 3D FC 6F 50 B3 60 EE
 1E B1 EF 33 BB 44 80 32 BB 62 22 DE 8D 88 18 DF
 1E 5F C0 71 39 59 C8 F7 4E 90 0F 7E 8F 73 61 07
 8A 49 47 33 AA CD B0 D1 C1 78 AA 37 70 80 AB 58
 7F 0B 80 12 DE 64 B4 E7 4A AB 01 F8 F8 58 C2 C5
 2D AD 21 57 AF DA 11 A9 CF FD B7 A1 C1 58 AA 53
 A7 11 D4 7D F1 FE 56 D3 C6 05 FC D3 1E B5 15 48
 61 06 C7 AE DE 94 00 9B A7 8F E0 E2 15 0A F9 BF
 01 7A 60 6B 40 96 67 36 E0 B5 F4 F7 43 19 A6 96
 8A 34 49 32 96 64 1A 90 29 DE C7 78 1F 95 C0 BC
 CD 26 CA EF 5A CE F7 CD DA 84 29 35 0A AF 99 86
 36 5C 59 A9 3F CD A3 C1 67 65 59 5B 16 BE AA FA
 03 B9 17 9E EB 4A A2 C2 A6 08 13 60 15 3F 76 20
 7E 75 97 E1 46 3D 93 CB 80 F0 2B 66 27 88 ED 67
 E5 05 9A F0 A4 B3 99 2D 26 DF DC 23 39 7B 26 FF
 7F 7D 7F 59 24 03 BE E9 D9 7E 94 E4 72 24 7C B5
 07 E8 7C AB 2E A6 93 BA A5 9D 29 8C FB D2 95 5A
 FE D6 39 4C 1A D3 3C 14 DB 0C 6B B2 C6 3A C0 BC
 01 D7 9B 87 F2 07 72 76 F0 E9 A7 C6 D5 E1 7C 50
 2B EC AB 27 74 3E E4 51 68 23 6F DE B4 32 F7 9E
 44 6C F8 DE 4E 8C 25 10 FF CC 18 4B 78 BB 1D CF
 C8 E2 7E 02 87 33 25 7E 0B 24 DC 96 82 98 BB B8
 93 3C 17 20 51 45 4D 4E 75 AB 70 5C C4 2D 5E 8A
 F1 D2 E3 D8 DE 05 3E 17 BC 33 95 F2 57 45 67 96
 40 BE 72 27 A0 3A F2 A5 74 71 0C A1 C3 08 BD 95
 FF 52 A3 40 F9 94 23 B0 9C C1 19 E0 2C 54 B4 0D
 B2 11 BB EE 33 A4 0F DD 35 8C 26 D4 1D 72 26 40
 1C 39 1B CF 33 22 26 B1 56 E7 EF B1 F0 EB D5 D6
 72 C6 85 17 6D E2 A2 BA D7 03 4D AD 6B 92 D7 CF
 D4 D1 69 27 F9 D3 74 04 C4 34 AF 80 BD BB E4 5A
 E7 E7 0C E0 D2 F7 CA EF F7 89 D6 6C F0 D6 30 54
 88 C9 94 C0 A3 E6 B3 15 40 DB BF DB 06 21 70 16
 2A 39 F4 13 EF 75 B4 9C 1F F4 F9 07 2A D8 EB B4
 2A 32 E8 CA 25 EC 1C BA EE 0C 3F D0 9C 74 B3 2D
 E6 53 3B A2 41 5C 33 63 FA 57 DB 32 29 6B 0C E3
 47 01 B4 DA 3D AF AD E1 B5 20 F5 B3 12 50 CF 76
 3C 4A 8D 32 34 01 31 D0 B9 06 C4 61 18 9A 45 B7
 4C 9F BA E0 E8 8E B8 CA 88 CB 6B 61 B4 A3 3D 07
 7C 71 6D 24 C3 9C 45 9A 96 2B E3 E4 28 8C DE 1A
 8C 1E 8E C1 08 22 E3 73 FC 9F 4F 63 A3 AD 35 8F
 C6 0A 29 D8 CA 2C A0 57 65 5F C2 FB 6B 91 86 38
 9F 1C 39 A4 66 11 98 59 FE 05 28 8D F7 86 C6 79
 93 86 43 3A DB 4B 78 43 37 52 31 65 4F CB 1B 21
 38 8E 3A E3 B6 03 44 FC 52 CA B9 F6 16 99 08 D5
 56 78 1B AC 5D EF 92 18 01 E9 99 EB 67 63 ED C0
 C2 9A D6 99 07 59 BD 1D EB 50 61 2B A0 62 73 4C
 D4 81 5C B7 B7 B4 72 C2 4E DD 14 80 25 F4 4A C9
 0F 58 29 05 F0 6D 83 4E 8E 2C 52 E9 E1 DC 3A 2E
 2D 8B 38 79 88 3F 56 FE CC 38 E4 05 09 F8 21 E2
 A7 D9 6D 53 AD 93 FE FF F7 9B A4 9D 5A 6B 01 D8
 14 4A BE 85 5A 7F F1 DE E2 D3 46 93 2A B2 48 FB
 11 FB A4 96 57 95 83 C6 16 D5 CA 2B E1 AF CF 2E
 0B F2 AA 45 CA 91 F5 B8 BC 03 E9 FC 41 37 10 A9
 13 F3 39 7B 22 DE 2F F3 58 49 1D AD D5 14 37 B6
 9E C6 78 27 5B 04 54 8E BB 92 E3 D1 ED 7E A7 68
 0F 33 6C 40 E7 8B 35 D5 14 06 EB 97 F4 77 20 92
 81 C5 AA F5 E9 9A BE 0B 61 C6 D7 16 41 6F 15 05
 9F D2 8A D9 48 AF D1 E6 8A B2 90 AC 3B 19 FB AC
 D3 EA 29 CA 62 57 51 C5 C0 C9 C7 23 5F 8A 40 21
 56 E9 10 2A CD 03 DE 82 C7 86 A2 57 EB 30 0D 75
 0F 35 B0 6A E0 60 9E 8F B0 FF D5 37 36 50 36 B2
 E7 5C 39 9D 80 0A AC 66 D8 5C 4F C7 EF EA B6 FC
 69 4C 8F 5E 98 AC FF E7 47 00 B3 07 4E AE E9 BD
 F8 D7 A9 54 B8 CE 82 BC 72 E7 E2 BE 88 58 24 4D
 3C 8B 27 43 C4 90 5C 4E 5E 94 3F D4 06 67 89 34
 CB 8E 3C A9 DF 47 76 C9 EA B2 4E C5 12 51 CF 74
 D9 65 CF 29 24 91 8B 4E FA 19 FC B2 2A 8D 27 BC
 C2 24 13 DC 06 9B 44 63 68 E7 FA 94 BF 1A 7E F2
 A5 53 75 31 C8 58 02 04 EB 4F A4 25 2C B3 83 9F
 93 5D A6 22 70 00 9D B8 A7 92 56 64 F2 DD AA DF
 18 06 EB 45 9E 92 B5 08 43 7D 1C F0 80 8E BD E0
 60 D8 D0 43 CA E1 B4 77 51 2F ED 50 1F E2 AA 3D
 09 E1 DA E6 83 FD 8D FE 08 B0 EA F1 DD 90 8B 00
 07 F7 2A B6 CB E4 C9 61 86 A8 B3 12 69 BD 50 A3
 20 71 C0 9C 50 70 90 13 A6 A7 8C A3 CF B2 FC 50
 CA 8A 73 42 4F 0D FB 91 73 35 16 30 2E EC E1 DF
 3A F7 FB CF F9 1E 71 06 F8 8A C6 7E 6B 24 60 9F
 17 09 DA C6 74 6C 37 03 CA 3A D9 20 42 36 30 03
 DD 8C D4 6F 22 71 D2 B3 EE 2D 45 0D 23 FF 78 C9
 3E 15 F1 CB 69 9F 00 C4 5B 79 AE 8D 95 76 36 62
 EC 8B 9D CD 2F D9 1B DE 34 80 4F C2 6A CE 80 90
 D0 30 68 23 F3 D3 53 50 8B 2B 22 68 98 3A ED 09
 49 39 92 B6 41 7D 1A 7F C0 4C 91 7C 43 23 3F 6E
 F9 69 3A A8 BD 5C 3E BB 68 34 78 82 8E F4 FD F1
 18 71 74 1A 34 10 2B 38 03 4C 88 B7 CA 26 89 12
 97 37 D6 CE 29 5F B7 47 A3 75 24 18 EF 12 DC FF
 73 CD 96 FF F8 14 8C DC 94 A8 EA 4E 00 CF 5C 69
 FD 76 BA B9 4A A4 4D 24 B5 30 59 87 C7 80 C2 4B
 A5 B3 42 16 68 F6 98 8F 71 05 D1 44 64 E8 0B 9A
 DE 27 32 3D 6E CF D0 A7 B9 37 90 9A C5 3F 5A 25
 7A 23 19 A1 FC CB 31 0F E5 E9 71 56 FD 02 40 36
 2B E3 A5 BD 92 C2 E7 C8 8B 3B AF 5A F6 E8 F9 20
 72 5C C0 5C 6A 2C 63 68 BA F1 1A 98 9F EE 7A DD
 52 4C 1E 44 E7 CC CC 5A D9 4F FA E4 FE 85 F6 AC
 6E 85 90 7E 3C 4F 78 0D F7 4D 3C 6A 21 84 4B E7
 09 B3 61 90 07 06 1E C2 8E 15 DA 9C D9 98 3F C4
 5B 87 3D E2 5B 6A 74 38 59 A4 B0 10 08 AA 22 4F
 41 CA 92 86 2E 17 88 B9 7D 49 B4 45 F8 89 2C 1D
 A7 38 A7 F7 CA 9E 8C BE C2 3F 3F 14 0A 62 CF 10
 30 9A 5C FA BC CA 38 5F 7A B2 09 67 48 D7 5E 10
 41 DB FE 7C 24 2C 7F D3 FC 8F F7 F0 B2 95 C8 E5
 D7 34 30 CB F0 14 21 51 D7 C0 02 24 4C CD 8E 63
 5B 34 20 75 66 A7 37 49 79 49 95 61 18 87 7D 9A
 8C 20 2F 24 5C C1 E8 87 F2 7C 2E 7A A8 3D D1 DD
 B7 86 FF 5E 7E 01 08 52 2E 13 9F 21 36 66 24 B0
 B1 06 C9 B7 0D 18 C3 CA 5F 7C 77 AC 1C D1 FC D3
 7E D1 13 88 B3 7C FB 15 DC 46 92 B1 58 EB 50 DF
 C5 3B B9 4A 07 0F 03 F1 D5 72 0E 00 02 C4 6C 0A
 69 35 43 84 86 72 F1 4E 19 63 97 DD B7 60 BB 5C
 8E 9B 07 BF 78 B3 D1 B4 6F 7D 71 DD 64 30 A6 52
 C8 24 2A 38 BE BC 42 C0 54 7C 27 02 F3 C4 11 0A
 03 E1 8D 30 CE A0 BD 35 7B 6B 89 4F 6F 54 C6 21
 A1 E3 33 DB B8 84 16 6C F0 C9 EF 38 4B 52 BC A7
 E9 69 46 3D 80 17 57 C3 35 F6 F7 AA 6E 91 E7 BC
 BF 07 DD 95 DE 06 59 B3 A4 4B 1B 05 9F 2D 23 0A
 DE D3 2A 4A B4 25 A3 B7 33 77 DA E6 C2 DB 4A 45
 87 A2 B4 C8 3A D6 5B F5 BD FB 0C 61 19 23 29 54
 30 2B 51 75 CB AD D1 29 9F ED F5 7D D9 C5 F9 35
 EC C5 3B 4A 6E 4B 11 33 6A F4 4F 59 36 E1 F5 0E
 6A 0D 65 F2 DB 30 21 7B 05 D6 4D 2C 6B 4C D8 23
 75 03 45 37 79 EB 08 3A 2F C8 0A 10 21 D6 28 A3
 7C 87 30 F9 C1 06 AB 52 57 3F D3 2E 15 AD 5B 5A
 E2 2C DD 78 58 2C 30 D3 88 FC BB 82 4B E9 19 61
 87 BE BB 78 96 41 5B AB 05 D9 B1 40 20 EE BA 99
 7C 13 9D 75 17 4C 26 F9 A2 84 36 E1 8F 24 81 EC
 FF 73 D9 55 E9 98 03 F4 23 5E 74 CE 66 21 C2 D7
 CF 1A 93 F4 0A 27 85 32 E6 CE FC 12 3F B3 64 2A
 D7 A1 AB 85 D3 67 A4 A4 A3 1D 9B DD 0C 56 BD 25
 EA B5 4B 64 A7 FE D7 38 38 F3 60 D9 17 61 81 70
 B9 BA AC B1 16 B6 C6 0D 17 E9 09 AB D3 AE CE 43
 35 A4 05 55 7C FC 32 BA 45 08 71 98 B9 68 E6 2A
 BA 74 F8 54 44 D4 1C 94 D6 1D B8 6B 74 38 B1 D0
 9D 83 71 42 D3 52 0C 6F 7D 50 B8 83 DB B9 E5 91
 AC 87 3D 88 50 2D 12 F3 74 03 F6 7C 83 A5 4E DA
 A4 88 C5 95 7B E9 5B 4C 34 D2 DB D1 D3 76 18 1B
 55 89 70 E0 1C B4 DD A6 8D 8E 5A 05 0E C2 2C BA
 E7 88 1C D6 3A 48 C1 E8 8D 33 93 12 9E 70 79 D3
 3E 22 4E A8 23 62 BB F4 F0 E3 64 5C 85 98 38 E5
 D7 BA 76 BB 6C 8D 95 8A 2B 2B B7 9F 6E C4 FF 31
 B1 5A A1 69 EF F3 E3 43 37 78 86 32 87 A8 81 DD
 3E 64 D9 7B 15 47 A3 90 62 D1 3C FA 0F 1F A2 A2
 9A D8 42 E5 19 56 3A 32 CA BC 6B E6 CF 4E BA D3
 29 9C 4F E9 D4 93 6C AC 43 ED F5 37 6B 11 44 39
 14 47 F7 C8 53 3F 34 E9 A9 9A 99 A9 41 E5 6D 1B
 3A 4B CD 87 49 A7 AA 8B 4B FF 56 B6 C6 A5 35 A0
 D1 9B C3 7C 58 49 A9 B6 91 A9 BD 08 A6 F9 07 45
 D8 6B B8 0D 9A 81 E1 15 87 F6 0F 4B 7C 9B BC BB
 97 7F D7 D2 3E 84 8D 3E D3 C5 BC 64 9C 25 DF 91
 1A F0 7A 96 96 74 97 8F 85 83 05 4B 36 F4 A6 CE
 74 2B 5D C0 CA 37 CA 18 CF A7 B1 F2 84 24 E3 85
 67 4E 29 1A 21 95 F3 05 B1 E0 AF DF 1D 3F D1 6F
 F7 FD 16 72 66 0E 91 54 3A A7 66 3E 2C 8C 1B 20
 A2 7A 9D 1F A8 A5 52 90 CF 56 4A 04 4E 7D 00 3C
 A4 FF 69 DA B1 4D 39 B0 08 4A CC B6 0A B0 B3 5E
 AB F1 A6 D3 DD 2A 00 66 EA 22 35 9C 2A DC 9D 0E
 C2 1F 5D C0 01 5C D0 64 BC 14 A3 DE 33 F4 52 7B
 B7 E5 B4 F4 E2 32 58 CB D8 1D F5 87 9D 4F E4 9F
 7A 9D A4 99 D1 9F 1C FA 13 AB F9 5F 90 DE 21 04
 65 B1 F0 D4 B3 8D 7B FD E6 6E A3 10 49 11 B2 6B
 6D B8 80 8B F3 F1 00 E0 79 07 81 91 29 B1 F0 36
 6B 39 12 E9 C8 BC C0 D1 AD B9 76 18 13 65 27 4B
 F3 3A 28 A8 0F FB 53 04 56 82 C0 6D 39 F1 A9 F5
 39 06 EF 35 8F D2 58 EE 80 D1 A1 4A 97 9C 74 83
 14 D7 B5 FF A4 30 03 2E 28 FD 14 76 BC A2 2C EE
 D7 87 0F 0A 29 C5 2E 51 A8 38 A6 68 81 3F 1D A2
 BD 2C 7F 24 AC F6 2C 77 C1 7A C7 9F 3C E6 06 7B
 67 65 05 93 70 93 76 F5 5B 0F CC 82 AA 07 26 62
 86 ED 03 5C 0A EF F1 CD B5 46 4A E0 5A 77 D9 10
 9A 03 C2 08 69 8A 47 93 07 A1 71 67 8B 6D 0A 79
 DD DD C5 25 71 0B C4 93 B1 0E E3 80 30 8C D5 CD
 28 C3 1D CC 8B E3 E1 8A 5D 78 E3 0F 9D 84 29 99
 5D 35 16 3F 6D 93 23 0D 9A CF 46 52 83 6E AB 7E
 1D 98 D5 85 09 4A CA 8F 25 E3 1B 9A 74 63 D4 43
 16 98 85 77 B3 BE E0 C3 AE 85 7A 4D 4E 5F EF A4
 32 8F 12 8F 98 C1 AD 08 05 6A 1B 9E E7 14 53 2D
 2E FD F5 3E 67 07 09 28 D6 43 18 23 CF 23 C9 A2
 5E C4 CA 72 85 89 99 B9 3B 06 CC 76 A6 26 FE 3A
 E2 83 B7 49 25 F7 60 D4 53 FC 4D BC 1D 78 0C E6
 3B 0A 03 BD 63 0F DF 61 16 C6 34 EE 6D 05 F2 59
 22 FE 93 05 76 08 E4 A9 38 7C CF BF 94 B1 57 D7
 E5 B8 9F B5 73 47 2E 2D E4 38 B7 40 9F 6C 70 AD
 A1 CF B9 1B 9E 59 D6 5D C4 5E 3C CB 9A DC B0 56
 70 1D BC 5F 27 82 D1 FB 67 FA CC E6 A8 8F EE 7F
 78 96 FE C6 54 E6 91 A8 1F C6 ED 1C 62 C2 0C DF
 12 E2 BF 08 EE FA F0 23 C9 9B AA 69 AE FF 08 A6
 B2 F7 96 5B 21 5C 28 25 22 CB 0A 06 76 ED D7 28
 F2 FB 3B C9 F1 5B F3 61 95 76 20 E3 91 29 4C 90
 28 7B 7F 25 A9 8A 51 7E 45 A5 DA 9B 42 2B B3 1B
 93 86 8A B0 97 9E BE D5 92 15 B9 B5 77 16 9B 73
 6C E3 A9 03 43 9C F1 5F 7E 28 F9 9F B4 23 DA 11
 84 5C F7 37 63 4A 9F 8C EE FE B9 7B 42 4F 66 E5
 65 C8 FB AF C2 F6 46 80 F6 F0 85 24 5B CC 9B 96
 13 3F 2C 83 29 C1 29 6D 92 01 D6 36 2D 41 B6 AF
 77 14 A5 55 04 3E 15 C8 8A 63 0F BC C9 0D 81 94
 E8 B8 08 22 CA 78 69 BF D3 2C 07 E6 9F F6 FD 64
 77 2A 2E 31 C4 F5 4F 38 01 E1 A9 4E 87 79 D9 A6
 A4 2B 70 B3 DF D0 D9 98 F0 D9 90 18 D9 1C 85 EB
 6E F7 68 6B 07 90 6D BF F4 A5 44 2C 7E 13 83 DF
 1A 7F 42 FE 78 B7 41 FF 31 C5 67 79 23 1A 00 06
 59 D3 F1 B8 6B 92 AE 7F 6E EE 1F B2 5A 21 A7 14
 77 1C D3 78 2F B9 9B 6A 94 BD 57 CD ED 28 C3 76
 BF DC 99 D8 AA 4D 6F F2 64 1D 70 FC 3E B8 2C 51
 B8 86 DD 11 A2 0B CE 8A 45 EB 4D B7 CC A2 85 F4
 19 B4 DE 27 19 05 C3 FC 17 5B B6 1D 6C 68 D7 B2
 88 24 CD 16 59 23 DC B7 1F 8D 61 74 49 6A 74 E0
 33 B9 0E 7D B9 2A 3B AE A3 42 B1 09 12 E4 49 A6
 AE 2E DC 53 66 54 C2 70 5C B3 7C 79 E2 46 97 A4
 A0 0F C5 13 49 46 FC 09 7F 82 C5 88 B3 F5 02 09
 E4 18 9D 5D B1 81 85 BB 7C 4C FE C4 82 B9 BB 7D
 5E 4B 36 DB 2E 7D 53 0F 12 D7 9C DC B6 27 62 3E
 EB EE AA AA 1D 9E 13 11 CE 36 38 F0 7A 8A E2 EC
 D1 CA BC 63 3A 4B 36 7A 32 3E AC 46 53 B1 75 AF
 D2 E0 BD 5A 51 5A 18 AE EB C0 BF 9A 37 64 BF 0B
 3B 59 91 58 65 BF A1 F5 F2 CA 62 93 8B B9 B1 D2
 4F C7 F7 AB 00 B6 56 27 A5 C1 F9 46 FE 0C 98 96
 09 58 83 8E DF 81 28 13 A0 A5 48 BA 80 DD CF F5
 DE AC D1 D9 98 73 AA 6B E5 AB CE 7C E2 1E AF 8D
 A4 A9 7D B1 19 8C 31 4D 7D 7E E3 15 26 B3 A1 7B
 DF 0B 3C FD E1 CE F6 AB 06 39 56 61 61 F2 C1 F0
 1B F8 29 44 8C 3B AC EA AE 90 D0 F3 6B 04 2D 43
 80 A4 5A 3E 7B 09 D7 35 68 56 10 8F 62 89 5A 8F
 1A 32 8A 35 D8 3C 8D 5F 0C A3 67 5B 4B B2 1C 4D
 BD 93 F9 4E 95 8F 05 4E 73 17 F4 FA 35 B5 77 43
 71 DF 77 20 DA 70 4C 56 E3 AF B3 52 7D 1B A3 59
 93 23 C7 25 15 28 25 C0 15 5E DB AB 47 B6 57 61
 5D 3E 00 F1 C8 27 A1 E9 62 E7 D0 92 A1 E0 CE 41
 B0 FD B5 FB 0E 97 33 48 F9 3E 4D 1C 73 A6 5F FF
 F7 E5 21 7F 78 41 29 67 7E A2 F3 12 31 79 32 40
 A6 A2 1C 09 5A DE B6 EB DA FE DC B7 B0 5A D5 40
 AA 01 BE 15 9A D7 7B 0C AE 6E 95 46 3F F6 4A 85
 4B 4C BD 9C 71 B5 AD F8 10 00 F8 87 3A CA 60 E8
 CC A2 4D BE 49 98 8D 0E CA 78 0F 1D 6B 89 C1 57
 C2 2B F4 A1 78 14 8C 4B E3 A2 05 FE FC 1A 10 A9
 FA FC 2D 71 86 40 C5 E1 5E 53 A3 0B 5D BA 4B D2
 B8 09 F9 CE 3E 95 DA 69 16 26 8C D6 64 A7 49 3C
 55 1B DE AA 13 1D 4F AA 96 50 A5 46 15 7E 73 A5
 AF AC 37 2B 46 01 2D D6 92 08 BF AC AB 6A 7B 88
 A0 D6 85 F2 EF C1 E6 8F 33 7F 20 F5 78 F4 F7 36
 52 B2 0A 02 B5 50 05 FA B4 8D 49 D2 C1 5C BB DA
 FA C5 88 E7 2D 24 7C 78 F3 0F 4F E5 80 71 69 E7
 1F A4 10 F8 AB 38 F9 7D B8 E9 D0 1E 62 BD 03 91
 CE F7 FA 67 1E 7D 5E 2A CC F1 AF 74 47 67 FD 5C
 0A 17 94 D4 C1 67 3D BE 88 64 C9 2E 5D 60 F6 36
 8F 6A 8F A5 44 E4 6D 14 B2 BD 42 83 31 F8 F7 F8
 71 F3 ED 48 53 C6 17 78 11 CD C8 11 A3 4A 09 0E
 C6 6E 7B EC 0E FE 43 BA 3D 00 AB 70 00 BA 0B BE
 B7 9E 59 B4 DF D6 3E CF B5 2C AC A8 A7 4C 2B B2
 C1 28 F7 67 29 3B 6D 5D 2E 1E FE 04 98 72 CA CD
 34 48 BB B7 32 7B 7D BE 9D D6 D4 05 83 99 F5 05
 59 17 46 57 FB F5 9C 09 7F 72 85 18 68 E3 62 A8
 9E 32 49 BD B2 E8 F2 55 02 9C AC 18 F7 99 84 42
 4E 3A 79 53 0F FB C5 3A 17 0E 32 26 AC 98 81 1F
 FD 67 82 B2 D1 97 E2 4B B9 4E A1 98 37 4F 1B BD
 D1 07 AF DD 3B 20 23 84 E7 0F C8 8C 30 00 7A E7
 29 DF 65 4E 94 6A E8 D5 C5 71 7A E5 20 65 74 99
 F1 D4 10 89 44 F3 60 7C D7 A2 62 89 24 DD 7E AC
 E8 8D 6E 47 BE 05 E0 63 EA 20 FC 58 3A A1 4B DE
 E8 FF 01 1D EE 2E 83 2A D4 B5 25 3D A7 77 4D 5C
 A5 F5 A3 1B 2D EE B5 04 FF 28 81 82 AC C1 67 64
 2A 58 91 CC 54 C4 7C A9 B6 4C 92 48 BF C4 ED DB
 62 20 41 0F 79 22 02 6C DC 90 9C BB A2 07 65 62
 9E C6 9E EC 7A BA DF 01 A4 77 64 95 A2 9D D8 F4
 57 98 6D 27 11 FC 8C F7 DF 63 A5 47 D3 44 7C 2C
 50 55 AD CB 8A F3 B9 98 E0 5D 71 76 23 5A F6 4C
 18 F8 C3 CC B6 60 0E 73 34 FF 8B 59 E2 C8 E1 70
 64 A3 0A 8A 51 4E BE 90 01 05 3C 19 11 70 3A 45
 58 FC C7 B8 30 DA 4A 55 6C 39 D2 BE 1B F1 3E 9C
 14 31 33 32 60 56 79 8D C6 C7 E9 E1 7D DC 0B 2F
 E1 71 E3 37 59 8A AA 7A 72 D9 6D B9 C0 47 40 21
 9A 90 49 4C 3B 4A EA D9 7F 7E B3 20 2F D7 BF E7
 5A 42 81 86 8B C7 7D 77 43 FD E4 31 48 2F 84 7E
 B4 49 17 BC D1 26 A6 2E 8C F1 96 6E 58 49 73 80
 11 6B C0 7B 65 C0 D7 CA 07 EE BE 09 B3 A9 2B 62
 AB 33 75 76 23 AB EB 5B 5D 16 CA 34 37 B3 5C 6C
 06 1E 97 15 2F 08 CE 65 0B 6F 20 F5 DF EF E6 88
 64 74 FF 62 28 3F 29 77 D3 B9 44 2E 5F 9A A7 CA
 22 27 EC C4 23 A0 3A FF 69 F5 7F 39 F5 D3 B3 7C
 E7 F3 01 37 5F 42 C5 C2 D6 66 37 22 A4 7F E2 31
 72 66 81 02 7F D1 9E 9D C4 A7 5A FC DA 48 BB 33
 25 58 B5 47 3B B2 17 C7 29 60 A5 FF 74 85 C7 3D
 1F 93 49 A1 66 5C 4A 52 85 52 D3 47 94 14 6B 5A
 53 AF 24 39 E0 90 1E F2 96 21 4C 04 8D CF 1C 57
 05 2B E1 6F 48 D5 CE 45 CF ED 97 89 09 8B AB 0D
 3C 0C 0F 6C 71 C3 B4 26 45 9A C8 EC CC C7 78 77
 D4 51 D6 2A 94 6B D1 F4 AA 47 55 4D 66 52 6C DD
 7F A1 CA A0 81 43 25 21 56 57 89 D7 15 B7 3E 82
 5B 04 13 FB 45 60 84 30 2C 53 90 E6 AD 5E 4C F1
 80 7A E9 23 1C E2 61 7D 63 2A 80 3E FB 99 5A A1
 85 D9 C4 07 96 89 79 85 00 4E 82 D3 37 E9 3A 46
 71 D6 4E E5 10 4F 9C 2C 87 CF 92 CC ED DA 18 FF
 B4 0B B4 28 15 81 45 45 72 38 89 E2 B6 37 5E 1E
 64 8B C3 DE 1B B8 BE 60 5C 33 06 56 5B 0A 0F E4
 91 B2 3E CE 23 A3 73 29 68 5A AB 84 E7 FB AF BC
 0A 91 AE AA 0E 5E 6C F1 91 1F DE 2A 88 78 A7 08
 0F 72 67 BE A1 67 D0 E4 A8 1C B1 C7 32 42 64 C2
 04 0A 7B 5C 31 1F 8C 8E CA 77 7A 8F 7E 7C 08 A0
 54 3B DB EA 17 DF B7 C2 03 2E 49 BA 89 EB 88 DF
 64 D6 2F DF 0B C6 B1 DE A8 06 C8 63 1E 46 71 39
 5C 1E 2E 06 08 A4 B2 2A D3 EC CC A9 9B 41 36 AE
 BC F4 9B 43 73 3C 19 63 2D D8 F4 ED C0 55 8B AA
 55 4C 52 19 20 09 77 F5 DB B7 9E 12 AB E0 19 24
 A2 22 9D 39 75 5A C8 51 6A 7B 23 2C 6E 24 AD 5D
 21 1F BE FC 0D BE E5 95 6D 22 DA FA 99 97 19 80
 C7 37 53 C2 FD 0B 2A 08 1D A9 14 22 8B 9B 62 1B
 3E 43 3B 48 BC 91 4F D5 BC EF 45 D1 CF 78 10 71
 E1 D2 CC 6A 39 67 F6 F7 C3 F5 63 49 72 BB 24 16
 8F 2A EB 80 32 18 45 39 21 EC 3E 9F 9F 2B 2B 57
 EF 37 66 2F 14 2F 53 13 FA 8F 60 86 A2 31 DC B9
 FB 15 B5 F7 8C BA 3F CA 71 7A D1 95 14 A2 41 3D
 05 AB EB 20 A1 8C E2 42 21 F8 AB 71 BC B3 D5 A6
 C7 4C FE 89 7A 68 CA CD 54 9B 33 1F 84 07 FA 48
 A7 6A D6 C2 1E 79 7C A5 44 AC 5A 3E 1B 68 21 38
 4C 32 C7 FA CC A9 F1 BB A2 09 14 3D 2E 09 D8 2A
 F7 01 BF C0 A8 D5 4D 2A 30 70 C5 0D 20 92 22 C3
 F0 6C 47 2A 7E 54 C8 3E D5 6D F8 4C 3C E6 0B BD
 C5 AD B0 1C F3 43 EE 3B 72 88 5C 23 4F CB F3 05
 1D 0B 5D 09 59 F5 8B 2A 49 78 E0 A6 18 07 3C C6
 6C EB 38 BB FE 5D FF 3A 50 0B 4C 4C 18 0E B1 C3
 CB B0 99 20 9A AF 7C BD 4D 51 13 7D 8B 7A 03 F2
 71 06 03 53 32 48 64 A2 6C D0 9D 68 84 37 EF 83
 DB 66 1E F8 88 84 CC 94 B2 B7 96 7E C5 5D 83 1E
 1F E3 47 6F 33 B7 BF B2 8D 09 14 E3 0A 72 2F 6D
 B2 E2 44 D1 2C 84 57 31 FC 1F BF C4 9A 3F 37 1E
 FF 1F 10 C8 1B F4 0D 33 17 89 48 8D 9F 32 54 D5
 6D D9 D6 01 96 CF CE B1 9E 7C CB 49 51 F0 14 BE
 B3 7C 37 3B 11 F6 D2 C2 5F 15 4B 4D AF 63 18 FD
 38 3A F5 C7 9C 19 8D E1 D9 D6 28 B2 68 E6 DA D9
 F6 8B A6 64 AF 9F 86 DE 67 7C D5 95 80 A4 65 F8
 EF 90 29 D9 7E 13 9C B9 0E 9B 37 E3 DE B6 AC 29
 1F 89 AE AB C1 F0 8C 44 9E CC 4C 25 F9 DA CE 0C
 21 38 18 1B D3 EC 74 1F 91 E5 41 48 B9 A5 4A 4D
 B8 5C E6 30 45 16 D7 A5 57 32 7D 6A 1D DA 90 D5
 13 F9 4B CD A5 1A 41 10 8B BC 83 5C AF 12 95 38
 9A 48 2A 5F 1F 7E 57 69 87 FB C9 1B 8B 89 D1 74
 3D FA 8F 31 7F 5E 1E CF E8 39 6F F5 B9 48 F7 4E
 0D B1 3C D0 65 64 36 04 6D F2 F9 68 4B 87 61 24
 04 57 86 9F 04 68 AA 9D FD F5 1D 8B 6A AC 12 01
 03 C1 D2 82 A2 25 45 8F 59 29 EE 15 CC F0 6C 8A
 AA 32 6B EE 9B 1B DD 2D FE 7B BA C2 B9 89 A3 70
 2E 2E EC 8F 81 45 22 29 28 52 E8 73 34 F7 E7 5F
 0C 06 7E 98 55 19 0F AF A7 03 14 DE 3F F3 FD FC
 57 CE F8 0E 2E 23 29 8A 91 0B FD 38 75 AA 05 05
 FF F3 D3 B2 A5 3C B7 5B 21 CB 56 DA 3B B1 59 F4
 77 1B AC 75 31 0C 3F 39 FF CD D5 92 DA 74 CF B6
 DA 17 72 C6 F1 13 87 FF 46 46 29 55 46 49 DE 71
 C6 31 96 A2 76 DD A4 99 F4 EF AA 8B 21 D1 E6 10
 47 CB D7 31 26 5C A0 33 1A A2 35 A7 10 CB 66 B4
 63 49 BE 06 CC 99 F9 D1 F1 5B 1E 36 3A DE FC 05
 B1 4A 24 D9 79 66 84 EC 6F 9A 5D C3 D0 86 20 AC
 11 69 96 FF 4C 36 E3 2D 84 7D D7 B9 BA 38 80 02
 3E 04 0D 12 E1 14 D5 77 D5 11 5B B0 F9 3D CC CA
 08 20 0A 0E 35 1B F7 A0 C9 F6 51 7F BA 7A E1 06
 56 82 36 6E 03 02 96 77 A6 07 CB 34 92 DB D3 A3
 CF 2D D4 C8 1F CE A3 E5 22 93 55 CB 70 69 A2 3F
 AF 78 ED 82 83 AD ED 46 F9 02 75 09 1C F6 59 63
 A5 A3 EF 06 86 6E D1 68 F0 86 72 4F EE 7C 3E 77
 E8 63 FE 34 81 87 F9 10 05 47 2D 6D 69 CF 9B E7
 83 69 90 6E 1A A6 0A 72 5F 54 89 25 A7 BB 82 88
 C3 65 24 79 54 C0 6A 47 E3 5C 93 A1 64 FC AB 1D
 CE 0E 46 AE D1 95 7D 83 D3 39 E6 FC 0E 56 B7 CF
 82 52 34 1D 17 6B 45 FB 70 33 4A ED 9F 3B F2 DF
 4A 8C DA 9F 26 B6 18 E8 CD 75 6D 4B 58 F5 F5 C8
 CC 09 BD 72 DA 26 62 5D 5B 61 C8 F6 F9 FD CE 70
 B4 5E 8F E6 66 17 62 D9 DE 6A C3 CA 06 37 78 6D
 2C F1 20 46 B9 F3 C5 E9 44 F7 22 C3 37 50 84 E8
 4E C2 57 E0 E0 52 91 4C C2 9D B9 6A 09 EA D5 35
 F9 86 08 34 89 67 0A 92 FE 18 32 F4 B4 87 65 AE
 53 7D 15 86 12 80 6A 07 10 1C 18 2B 43 9A B4 C4
 6E 06 EA B7 9A D4 3E 5B 4A 68 AF D4 02 89 F4 98
 0A C5 EC 79 B6 1E EE 73 0C 58 31 F1 77 50 3C 8F
 AB CF 6F D6 69 A5 D5 33 50 02 73 55 9F FB E5 1C
 98 91 5E 8B BC 9E 7B D2 4B A3 09 E6 B3 6B 10 C3
 BE DA A6 E2 95 EE 0D 67 05 57 DB 45 C7 61 40 11
 58 71 94 58 98 F8 2F 76 5B DF 5C 70 BC 9E F7 E1
 F8 2D 48 5B 4E F7 65 16 D3 6F 8A 63 69 15 DF 8C
 06 6E 91 DE D3 47 E2 8C 31 78 C4 E4 7C 15 89 84
 F7 B8 15 C4 15 3D 86 32 43 D0 E4 A3 B8 1B 2C F8
 FB 98 B9 D6 88 9B D8 D2 E6 6B 46 40 1C 2E CD 66
 09 48 D9 EC E4 2C 75 04 99 E6 34 21 70 8C 63 A1
 72 5B 8E 5B 4F 95 D1 6F 54 5C EF 89 A8 C5 AF 40
 DD A8 A6 E6 DB 4B 2F D2 8D B5 89 1E 7F 4B 5E CA
 10 A4 22 C8 17 05 73 3E F3 E3 2C 01 12 3F 24 CC
 74 A4 FA CB 4A 02 66 4A 77 90 9F 7A 7E DA 99 D6
 60 F5 D3 37 22 28 D4 DF 50 A1 E3 C7 B3 C7 F9 48
 D9 19 AB AD 4A E5 5D 28 FE A8 7F 22 CC 94 82 BD
 2E 26 16 05 EF 5E 02 49 8D 05 08 00 5E C5 75 F0
 37 15 A1 B0 BE 5D F1 1F 98 B2 F8 F2 DF 24 14 B5
 5A AB 92 93 B7 9C E3 80 33 F4 53 C4 21 E0 66 D1
 F2 16 5F 9F D4 AC EB 38 96 28 09 F9 85 16 99 F4
 2B 3F 6F 5E 92 D4 C0 44 86 4E 81 C5 A7 5E A0 72
 AB 4A 18 6C BC 4E 2C 7C 70 29 9E 45 89 93 EB B4
 02 F5 1D 5B 9A 3C 28 B7 6F FF 37 D2 38 EA 54 9F
 C5 46 0B 21 02 D8 BC D1 24 2B 17 97 BB 03 7B 59
 76 57 F3 3A 10 2A C0 46 24 68 AE 90 4A 87 49 5C
 29 51 23 65 91 1C 87 C3 92 5B B1 DF 68 79 65 E1
 6A C5 D9 9A 99 10 C1 59 E2 EA 8E DC BD DC 73 63
 11 80 1C 14 A7 6A D5 2F 5F A2 39 D9 78 B4 71 5A
 07 B5 8B 44 B6 CD 74 E6 F1 24 04 AE 8E F2 2D 77
 FF E6 B3 5A D3 F3 9A 47 62 4A 2D 39 86 B9 DC 65
 AE EC B1 BC 4E D4 C9 D1 0B 40 6D 28 1F C8 68 8A
 24 01 96 76 DE 55 35 9C 65 C3 73 DD AB 11 F0 A0
 35 4A 34 AD 25 2B 70 57 C0 85 8C 3B 22 A2 EC FB
 6F 16 1D B2 E6 0F C7 A1 03 2A 56 8A 28 A0 D2 2E
 3F 1E 19 05 AB FC 78 02 73 EE 14 B4 D5 57 D5 ED
 BA 1C 96 3D DA 13 E4 2E BA 1E E6 41 EA 5F 1D B6
 7A 22 B4 82 22 E5 A9 64 93 E1 8D C7 68 97 2D EA
 B6 34 31 37 22 A2 09 97 BA BB 25 80 0A 7C D6 A5
 BE A2 65 A2 B0 CF 98 79 15 8C 84 21 0A 19 82 0E
 48 E6 78 95 39 DC 44 C4 FD DB 6D 5A 72 49 64 30
 4D 98 67 66 57 2E 77 5F 79 43 42 86 36 4D 73 22
 B6 C5 EA B8 F9 E0 99 A9 F2 5C 25 41 7C 30 0B 8C
 D4 29 CD ED 49 9C 36 D1 01 8A 4C 67 03 A2 7D 14
 7D CD 32 5E EB F1 95 85 52 BB 15 E6 72 E7 45 14
 37 6B 4C 30 A7 ED 07 95 F5 53 BF 7A B3 7F FE 7E
 76 F7 59 83 4B B6 29 1D FD E2 D5 5B 87 77 0E E6
 AD B7 CD B3 0D 79 89 3B 75 44 EB E2 20 46 37 C9
 B0 12 BA 46 F8 E1 A4 81 8E 91 F1 2A 43 49 0C 29
 E3 1B 4F 6A 90 64 E4 B5 02 87 CF 42 57 6E 58 3E
 76 DB 62 F9 0F D3 97 DA 92 FD 08 95 1A E8 44 D6
 C3 06 96 7D 29 4F CE B5 56 58 DC 18 77 81 F3 E5
 67 EA C6 50 4E 2F 87 55 6E 5D 72 96 DD 0E 12 61
 C5 82 A5 14 E1 D6 6D 14 07 AD 56 C5 91 FE F7 E6
 A5 FA F4 1B 79 95 E5 A6 68 0D F1 2D 68 A9 94 B0
 68 17 78 77 B0 38 DE 4A C0 1A 02 BF 4C E9 DD 16
 D0 37 79 25 5A EC AE 60 7E E9 71 3B F6 11 49 CD
 94 A0 FC 14 6F 65 26 2C 00 51 BF B6 66 AB B4 CC
 3B 8A 36 9B 14 8C 8F 26 FC 0C CB 70 72 A4 17 F6
 A4 A2 20 0C A5 58 9E 2F 2C 02 30 AD 41 FD E3 EC
 4B 81 7F 6D AE 52 7E 5E 4C 11 17 08 A8 36 C9 1B
 B1 90 2B EA AE F1 04 6F 00 56 AB 9E C0 CE 2E 14
 02 9E 80 D2 42 C0 AF E1 6B D2 19 D6 12 66 F0 FF
 33 6B F7 29 2D A5 2C 30 E1 1D D4 8B 26 05 A4 55
 94 37 AD 24 B6 7A 1C 5B E2 4D 3C 69 49 C9 4E 23
 CD 3F 79 77 1C 8A 7F 83 30 C4 1D 79 DC DD 4A 3E
 C1 8F B0 EC AF 3A 20 18 B2 20 51 D9 38 28 24 ED
 38 F5 9F 71 82 7B A6 A8 70 54 ED F6 3F 63 48 9A
 F7 6A 58 1C 8E F9 FC DC 48 B3 69 02 52 F7 C4 7B
 10 D9 36 31 1A 42 EB 60 48 38 FF 14 4D 14 7F 46
 44 BC 2C 22 38 91 1A 20 7A 32 C7 91 CE 52 78 BD
 20 5F 2C CE 0E 75 16 27 51 AF 14 2A 7C 21 A0 9D
 61 98 F7 0A 01 FB 33 3F 90 D0 B5 92 5A 5B 1C 2B
 7D E9 16 7D CE 7C 24 63 F8 DD 51 81 6C 96 E7 02
 F5 45 2F 88 EA 78 25 79 8B 11 40 26 C7 3D DD 1D
 C3 FD F6 55 E7 52 91 F2 A1 30 77 2F 0D CF C9 48
 8B D5 35 EC 47 DC A5 47 A1 D6 44 68 10 F4 BD E7
 0C 9E 9A D3 50 77 3C C9 F4 6C 35 FA 20 EA C2 A4
 47 3E BD 46 C0 98 16 51 5F 73 1B DF 74 9B 86 6C
 5D C0 32 60 51 ED 18 6C 36 52 B4 0E C6 29 3A 2C
 DF A5 E2 C2 5B CF 36 B0 A6 28 24 73 14 0E 06 68
 4A F2 3D 35 4A CE 13 61 BC 96 E8 05 E3 A0 0F EC
 B6 83 C2 7C 2E 7F 28 F7 96 4E 10 77 FA 16 24 67
 70 23 9F 5B 05 55 C5 EB 62 B5 B1 DC BE 0B 87 EE
 73 C4 CB E7 99 75 26 94 85 EB 69 0B 81 1B AE 7D
 F1 E3 41 3E 29 36 98 E6 E6 B6 A2 3F DD 21 87 EC
 1C 52 30 1D E0 95 03 63 E3 01 38 15 CD DA 5C 95
 2B BC 57 E2 76 2A B6 4E 23 D4 90 6B A5 B4 43 61
 9E 80 99 69 75 90 C3 80 0C D8 0A 0D 5C DB 25 2F
 9D B3 7A 41 90 F1 CD D8 D5 53 A5 5A 7C 10 EE D1
 0E F5 E2 67 43 C3 5B 9D FA 0C 44 71 75 41 44 28
 02 FF E1 19 8F 56 0C 46 6C AD 34 7F 1B 75 7E 38
 28 A5 54 33 B7 E3 AD 1A 66 D2 A9 6F CD 80 76 AF
 DE 37 EC 02 69 3C 25 B4 EB 6E E1 68 EB 66 B3 A6
 2B 47 8B 63 F3 5F 70 A7 E2 11 3F BC 2E 9F B7 9E
 8A 57 3C 57 86 86 2C CE BC D0 E1 3C 68 70 03 64
 4F 9D EF 95 04 D0 EA 5F 66 EF BE 4F 7A EC 9B F9
 41 2D DB D7 2F 36 C4 A2 74 CE 69 D3 81 2B 43 1D
 D9 6B 4C 14 EA 32 CE FC 72 0D 1F DE D8 44 60 E3
 80 A6 12 A3 39 5B C5 9C 72 CF 20 F3 01 F4 12 01
 7D 2C CD D9 9B ED F1 23 57 8C 71 B3 C6 D5 28 DA
 1D BC 82 2A 42 98 2B AC B0 F5 84 80 76 AD 83 4A
 C9 F6 A9 14 EC 42 B1 E8 47 56 2B 11 DD CF 1D 4F
 CC 66 E7 27 72 74 37 E0 47 C4 28 F5 C9 F3 DE FA
 C6 39 81 93 87 76 3E 40 03 42 83 B9 82 89 87 9A
 3B 7D 07 BD B2 B2 5C B2 96 E2 47 D5 16 93 5D FA
 54 83 CA 20 86 84 5F 74 DC 24 63 6D 65 E7 DE FD
 98 83 EE 48 41 14 EE 73 91 4B F9 A4 32 96 F8 FF
 3B D6 FB BB 69 38 85 42 2D EC 4B 83 12 ED 64 7F
 56 75 F5 83 88 0F D9 78 DF 38 6F FC EB 32 F0 EB
 58 38 58 35 83 74 F5 BE 5F 82 6A F4 80 D4 FA 4D
 64 5C 4F E5 BA 1F 23 38 37 26 C3 38 79 47 CD 8B
 AA F8 69 31 5D 84 E1 7E 94 97 ED C8 37 CF 09 D7
 BD 6E 54 FB 6B 59 AC 5B DE 2B FD 72 82 51 F2 E1
 9A B1 05 70 D1 27 85 58 61 CD B6 2C 0B 76 75 58
 88 54 EE 6B 1E 30 B9 70 CE 84 2B 86 01 2D 09 01
 F8 6C C4 44 07 F8 18 B2 54 33 64 C4 DC 8A ED 91
 C1 7D F4 DD EE 7F 02 A0 3A D5 CE 2B D8 5E E3 52
 49 7B 5C 5C 6B 01 52 6E 2F 4E C5 51 BC 89 10 2C
 69 2A 4D 25 A9 6C 2C AC 74 14 0D 7D 68 12 94 90
 F9 9D 9C 91 F4 0F B7 D3 13 56 16 6F CB CB 66 74
 A1 83 F1 4F A5 7A 54 09 19 92 4A CB 38 01 69 7B
 A2 09 25 1E 6D A1 40 07 DC CD 95 F8 9E 4C D7 0C
 DC 43 AD A1 69 4F CC 38 6C E8 3F 9C 81 98 18 D3
 FE 1B 14 07 C5 EA 8B CF 1D DC BA DE 3C 0E 6C 57
 67 F0 97 87 34 14 0F 93 7C 56 47 8C A6 CE D1 22
 46 EE 1E 4E 95 80 DD CA 55 29 A2 E0 27 47 E5 A6
 25 4C BA 0D 9C 71 C6 85 59 D3 6C 2D F0 11 C6 01
 6B E9 B6 CF D7 0B 29 5A 34 D3 F5 D7 A4 89 41 5D
 50 D1 04 51 AC 37 A0 50 25 24 82 3F 46 A3 01 BD
 89 82 99 41 FA D3 A3 0E 7D 55 70 2D 9F CC 0E 92
 15 BC D8 BD EF 7A F7 EF A6 72 A4 9C 0E 5A 67 F8
 33 18 2C EB 38 60 06 11 9D BC 84 8D 7D 07 9D 53
 16 C2 B0 FE E8 11 65 D6 08 AA 0C 17 4D 86 2D 6E
 46 DE EE 1D 3A 02 70 2C 70 30 58 C7 96 98 88 89
 A1 92 06 2C 1B A9 CF 29 56 61 2C 5E 4A B7 D7 79
 58 25 70 94 8B 72 ED 21 25 F9 FD 0F 69 49 B4 1B
 01 33 36 91 B4 A0 FA A7 FC 28 2B 05 39 E7 6C F9
 7F 76 66 7E 37 E9 8D 40 19 96 FB 1C 55 10 AF 8A
 99 83 26 11 98 89 E2 65 A2 25 95 26 40 25 34 37
 4B EC 0A 78 87 AE 0B BF 3E 7B A6 1F 07 ED 05 92
 DC 23 C4 16 20 18 73 A0 A1 BB BB AA 72 C3 1C 48
 62 9C 0C E7 C3 C0 7B E6 AB 32 2C 64 A7 30 6C 86
 70 B2 7F 09 84 2F 64 CF 6D EC A6 BD C3 4F CC FF
 E3 66 DE 79 C2 63 9C C7 C3 02 0C 12 12 26 84 B5
 19 5C 2D B0 31 5A CD BF 66 9C 8C 33 1F F4 01 81
 7B 53 A8 DD E9 91 A4 43 D2 79 97 43 4B 1E AD 80
 F6 A6 1B 40 B7 39 49 21 98 BE 78 D8 71 47 AA 3F
 01 16 45 69 77 E3 D2 17 46 58 8F C5 F1 59 65 B8
 9C AC 67 DE 36 9F 1C D0 10 82 A1 60 F7 4A 45 09
 DB CA A4 D4 28 D8 D0 BF 0C 2F 28 43 4F 1E 91 C3
 39 82 D4 51 ED 6C CA 15 F8 7C 35 D2 E6 08 E2 23
 9D 26 C0 15 8B BC 54 74 BD 0A 25 6F 4E 4B 53 39
 00 25 C3 BB 4E C5 28 52 7D 6B 33 31 36 33 BA F8
 42 E4 94 5D 40 EF 4A A1 CA 17 9F 47 F0 13 C6 57
 F9 17 E5 A4 7C 26 01 21 7D 02 F4 2B E9 0C 6C D0
 1B F8 82 B7 EC 0D D7 75 43 2A 3A 15 68 D6 96 DD
 4C 0D 4D C5 AF 6F B8 07 A2 1F 41 02 97 3D F3 63
 76 97 10 F8 D1 BE B9 41 52 36 BD 60 ED B2 88 E8
 2A C4 BD 18 E0 B2 F8 FF 7B 6B E8 A3 D2 86 05 40
 25 3B D7 96 6E 88 4D 3F 95 90 D6 56 ED 3E FC 32
 FD 8F 12 BB B8 62 23 F1 DF AA B2 CA AA F9 44 C1
 EA C0 12 B6 11 A1 55 D5 79 50 EB 2B 01 CB D6 AA
 77 2B 70 CE 2F 9E B9 1E C2 0E 38 D6 E3 3F C8 EF
 E0 FF 0E 02 8D 17 A1 D5 2D 7B 74 B4 15 E6 D6 76
 5D 08 88 FC 76 54 3A 61 19 33 6B 47 8E BB E9 59
 5E 1D B3 35 DA DB 54 1A
* End 4195569049 1993885996