* LTspice Encrypted File
* 
* This encrypted file has been supplied by a 3rd
* party vendor that does not wish to publicize
* the technology used to implement this library.
* 
* Permission is granted to use this file for
* simulations but not to reverse engineer its
* contents.
* 
* Begin:
 AE 80 19 14 CC 73 69 D3 F6 20 49 4D C7 2F 32 45
 44 9C CA EA 60 85 E5 1C 17 9C FD 4B 8B F3 54 87
 16 3E 4B 5A 05 18 43 C4 A4 1F 56 C3 2A D6 D7 BE
 39 9D DC D3 61 3C F5 11 7C F8 6F 2E E1 C1 41 00
 CD 15 5A 43 A5 CD 96 6B 5A 67 47 96 5F 54 A6 E2
 1D 76 B1 5D 25 51 B6 23 3D AB 2B 7F 17 C3 B2 9F
 EE 48 D5 5D CC E0 73 A2 B8 40 08 77 E3 C0 57 EB
 1C 20 2B 00 3B 7C 8C 19 CA E0 9E FA 7A D0 4C E5
 D3 A0 42 1D A0 0B E6 12 67 28 A4 15 7B AE 13 3A
 F2 AE 9D 0A A9 2D 2A 40 86 B2 A3 C9 5F 56 68 F0
 B6 A6 3C B2 A2 D0 F8 63 93 90 B4 BE 49 36 3E 38
 76 92 01 24 E3 44 AD 04 A5 B5 2D A0 6E C2 4E 0C
 01 AB 14 21 BF 13 B9 2A D6 E9 5B BB 9A 73 4B 36
 4C B5 2C 2C FC D1 AA 70 A3 16 56 A3 1D 02 FE 7B
 B9 78 6A 3F EA 53 1D DB 8F 86 2D 8D D4 5E 2A FD
 81 48 1B 03 B3 69 1B 81 42 1C 53 47 5D 6E 15 EC
 05 42 54 D5 2B 43 FC FA 03 4B 5D E1 8D 8E 9E 5D
 51 39 D5 EC 3D 2F 16 A5 7E 40 A6 35 83 C5 89 E1
 6F 50 48 B4 D4 34 58 66 77 DB 6B A8 B0 86 D6 BE
 F8 3A E3 77 1B 0E B7 AE F3 24 98 8C F9 69 5C D7
 19 85 C0 FD BF 95 8E 26 DE EC 3F 59 5F 77 B7 3A
 00 C3 BF 47 3B 4E E5 BF C2 41 52 C6 F3 EA B3 F4
 81 0E C7 AC A0 F0 25 29 95 EC 8F 16 6B 92 1B 2A
 63 98 C5 63 DC 76 FB BF C1 C5 FC A2 3F C1 6D E7
 30 FB AB 10 0E 55 2C 8B 72 C1 D4 0F D0 08 56 03
 83 05 B4 64 D0 61 10 0B 51 88 B1 DA F8 D4 D8 49
 A7 37 2F 2D 3D 58 A8 41 01 12 07 B4 E0 A2 1A 2B
 28 8B B9 AD AA EA E2 56 61 10 CA 72 D0 45 A7 DB
 DB 86 E8 D0 62 75 7C 1E 22 7F CF 3B 4A 44 D2 C8
 B5 29 8C 19 17 FE 77 C9 60 0E 10 5E B0 5D 00 F6
 C1 6D 59 89 C5 82 9A 90 E8 FC DC 08 1A D1 79 8F
 2A CF FE 96 BD 4C 55 C1 10 7A D0 97 EF A4 59 F5
 72 A6 F0 A5 87 14 8C 1F C5 EF 90 4A 6F D6 72 49
 C0 0D 2B 13 98 36 17 AC 34 06 A3 6E 4C 72 3D AE
 32 26 4E DA 5C 66 06 A2 D8 36 CF 22 48 F7 76 4F
 DF 5B D3 FF 75 D1 DF 54 B1 09 FB AD AE 39 21 A8
 43 58 A1 E2 DA EF 3E 9A EA 7A 1E AF 94 2F E9 6E
 79 57 14 B8 8E E0 C6 7F AF C4 0A 11 F4 30 49 95
 C1 AC F2 34 C9 2D 29 9F 7A 04 C9 1D 2C 1F 90 92
 FC E4 10 A2 27 81 34 F2 39 42 B7 C5 17 6C 3C 58
 0A B8 D7 94 F2 CB 50 38 F2 EE 7C 2C 54 86 B5 AC
 51 40 C9 04 E6 E3 C2 E7 B1 6D 19 30 12 EB 2E C7
 36 08 DF 08 49 B8 1B FC F9 AD 66 06 F8 B0 E5 B5
 1E 13 52 9E CB EC 7D D1 67 87 26 56 49 81 00 A0
 49 60 79 40 18 71 EC 5E 92 88 21 29 18 AA 7D 0F
 B3 0B 6E F7 E4 85 DC 3B 00 F4 E8 31 C1 DF 2B F0
 33 7A 44 0C CC 3C D2 0B AC 6C 27 12 CB EE FC A1
 AE EB 8E 41 B3 88 BE FA 69 CC B6 E0 48 F3 A8 4B
 74 5C A4 A1 51 9B 44 ED 38 26 85 2F 41 8E DD A5
 38 4E E3 52 61 F8 2C 77 8E D6 3B 6C 93 EB A2 CE
 04 2B A6 12 57 BD F4 47 B6 15 36 10 9A A0 2A C9
 39 0A EB 9F 0B 47 EE 19 52 75 3B E4 AD E7 A0 BA
 DE C2 86 E3 1B 90 E6 63 22 4A 31 F8 53 60 22 31
 68 AC 5E 99 A5 4F BB 61 E6 C3 ED 91 BF 08 11 48
 A9 49 A3 E4 81 0B 02 53 0F 8B A7 58 B4 CC DB B5
 E1 24 C8 25 7C EA 6E 9D 8B 53 4D 3E B1 B3 CE 5F
 28 3B 88 00 B7 18 F2 88 A3 5E 29 B8 8E C2 B6 8F
 25 FA 9B 0F C6 1F 18 20 7D BC 35 84 AD BE 07 CD
 0F 4A 8A 8E F4 59 75 8D D5 40 76 8B 53 18 9F B8
 61 D0 AE 99 40 93 97 BA F8 4F BF 0E 80 93 F1 33
 03 FE 38 A6 EA C5 AD 67 89 76 CD 89 83 D9 A2 5C
 45 F4 DA 52 38 75 48 AD 96 51 E1 95 E6 34 8C A5
 D6 AA B1 AD 24 89 1A FE A5 47 45 93 1D 3E 18 97
 DA 2D DA A4 7F 57 72 25 AE 28 BC D6 7A 97 95 1C
 39 36 FF 30 B1 DF 58 E3 84 52 D3 6A 38 6E 85 CA
 13 08 94 5F B7 A4 C6 38 64 A9 D8 EE 8B B5 1B 13
 4C C7 28 82 4B D9 64 AE E3 EF F5 CB 75 94 46 66
 B9 DA 83 8B 3C BB 2D 84 34 15 5E A5 DC B6 C2 F5
 C0 30 DF 15 4B EA 64 12 7F 21 DF 05 CC B7 BF A9
 F4 21 B6 18 C5 B4 23 44 04 06 48 30 6A F3 4F 39
 B8 D6 BB DB BF C1 BE AD B0 E7 A2 EC 4A 1E 47 3A
 80 6B 24 AE 23 39 32 69 43 C1 BB B4 80 27 E9 81
 6E B3 98 A7 41 C0 B2 1B 69 72 29 38 75 9A EF 04
 19 99 47 D9 1E 54 25 26 86 7F 9A 3D 4D CE A7 B3
 35 56 16 10 38 B4 46 E5 F9 CA F7 F8 92 C1 F9 CE
 DB 37 F2 18 81 27 A9 8B D4 1B 8E EA 57 83 21 B5
 5A 4A B7 07 2B E3 81 FA 92 76 1A 27 99 96 43 62
 83 4F 0B 26 B9 66 E7 C6 8D 3C B2 B3 D4 1E 5F 1D
 D9 F0 C2 F8 30 6D 49 1C AB 63 5E A4 97 B4 FA 1C
 0A 71 CE 75 17 61 48 C4 0F F2 00 F4 66 F3 C1 2D
 06 2A 7B C3 63 9B 33 01 0B E3 4D 3C 15 BC 76 85
 43 EB 66 AE 48 AD 83 84 C4 DB 7D A6 20 FA 16 64
 9F DB 43 FC 39 E5 2E 26 7F C4 A3 74 4E 19 64 29
 CA 91 80 AA 91 64 AF 2F 62 73 17 F9 B7 AA E5 39
 38 B3 6B A8 D7 EB 68 7E C8 49 C7 FB C2 13 15 CD
 78 F9 BD 60 D3 0A 11 46 2F 41 03 A1 11 E6 B0 8E
 E7 95 71 1E F6 73 9B 86 FA 1F 2B 1E 02 05 BF 02
 61 AB 5F 39 E1 7B BE DD F0 44 38 F2 52 33 DB 80
 AF 82 30 13 17 CA 7C 91 85 50 F8 55 AA 2F DE 55
 AB A6 54 00 A8 9E E3 C7 9F 28 BB FC 32 3E 38 9B
 B0 F6 07 93 64 69 EA 31 CA 32 70 EF 5A 2F FA 3E
 91 49 E3 45 B2 BA 23 40 A9 8D A2 5F 6F 4E A5 76
 BF A5 18 FD ED B2 06 EC 99 74 08 D0 94 14 E9 6A
 EB 6E 0F 12 B9 CC BC 10 86 F0 F9 16 DC F4 F4 C1
 C0 0E 07 16 3A D4 29 DC FA C6 24 A2 CF F8 E6 43
 5E BB CE 8A 78 F2 31 99 23 EF 54 3C 1F 37 7D 86
 72 93 E1 E3 DD D2 F6 62 09 C0 49 CF 7A 4C 45 12
 24 25 44 B6 BD 73 E0 65 B6 86 17 44 D6 D6 D0 65
 F0 1E F2 43 D9 6E 37 AF 42 5C 71 E5 8D 4C 57 F6
 87 11 24 C4 E6 37 3D F1 7F 48 54 25 5F 69 50 E9
 C0 8D 57 66 F9 76 C3 40 5D 93 08 AC 20 79 CB F4
 C3 EA C2 2E A6 5C 4A 40 59 15 0F C6 2E 75 AC DD
 B0 B7 6C DC 76 9F AA CC A1 10 B9 46 62 65 24 BB
 2F 02 B4 21 B5 27 0A F5 48 85 A0 EC E5 18 4B 33
 1A 82 34 67 5A 16 02 CF C0 83 22 D0 C3 58 CE 15
 C0 3A 02 60 7D 50 20 A8 3F 4A 35 F7 B5 68 BC 84
 FB 66 EC 2D 91 48 26 BC 4A A0 92 53 56 5B 7E 3A
 0C F8 7B 32 D2 BD 60 32 5E 73 66 B9 CE 7C EC 22
 F9 2D 3A 7E 01 AA 9C 69 36 11 35 27 43 C5 37 05
 AD 4F 20 1E 47 3F EE A3 51 93 47 DF B2 C9 06 47
 D7 23 3C B9 33 C3 81 68 C4 AE 7A 7A 45 B0 29 D3
 A3 AD 79 D0 BF BB 7E D2 57 69 25 76 47 84 0F 3E
 E7 8B 9F A5 A3 B6 36 78 CF 5F 07 A2 11 9F 5C AB
 2C 70 11 B2 8C 7A 88 80 08 40 C8 59 30 FE B9 4F
 32 33 B4 D0 7C F7 4B EE 2B 44 02 CD F7 FC A9 F5
 12 EE 7A 69 3B 31 D9 6A 30 AA 51 CD 45 FE 01 2B
 85 17 BD 75 04 C7 ED ED 1C 4B F1 F7 90 DD B1 46
 50 13 87 57 8A 7B C1 16 B4 D4 76 D7 3D F1 1B 43
 9A 8C DD 3B F2 AF 57 23 EB 68 FE B1 1B 63 1B 1B
 BA 8D CF 4B 8C 5A 6E C4 14 8C A9 2B 26 14 BC AA
 92 D1 18 95 B0 5F 33 FE 05 C7 D7 2C 86 31 41 CF
 28 B3 4F A7 94 1C F7 CC 72 87 8B 87 54 14 59 7B
 56 2F 75 24 1C 0C EB 53 67 F0 8F 05 0B 2D 8C D3
 5C 9C 4B ED 72 E1 85 A0 0B 51 46 F2 71 72 96 3A
 05 90 97 7A 11 5E 7B 0C 99 55 69 32 3D EF 11 CF
 DC EE 69 5F B2 D4 F4 70 70 38 3D 7F 0B 5A 5C 1F
 73 07 0D 2E 50 C9 68 F7 91 22 C0 84 D9 E4 1D 45
 32 24 7B FE 59 A1 80 7B 22 4C 0F 5F 84 08 87 11
 59 09 52 9D EA 6B 01 26 16 F7 63 18 74 48 B0 EA
 92 03 3A 1C B6 DC 2D 9F A8 01 18 13 1B E3 65 85
 48 DB 7F 24 57 79 F5 2C B7 07 C8 4C 78 29 D0 5D
 50 A6 C4 63 EA 87 BA CF 0E 30 7F 6B 68 7B 33 18
 79 DB 81 17 00 8A C3 27 E1 37 FC F5 6F 9E 9F 4B
 E8 7A DE 06 A2 48 EE D4 29 65 10 C7 0D F2 99 03
 64 93 22 DD A3 B9 71 C6 DC 2B E3 86 B8 76 91 02
 2E 52 6C 6E 24 66 D1 D6 36 0B 5E B5 D2 BA DD 58
 A9 C0 20 45 2A D0 45 90 FD CA A7 B8 0E E2 4B 9F
 C4 B3 53 4F F7 03 E7 BA 7B 82 4F B8 F7 C0 A8 20
 FD 5A 0E 50 02 2F A0 60 5E 2E 1D 61 A0 C7 AA 0B
 7C 5E 48 82 A2 C4 E9 9A 28 D2 6E 80 72 46 61 97
 14 A3 AD 88 D7 77 50 6A C2 D1 FB FF 29 4F 37 56
 E3 08 DA 10 19 F0 17 6B 4D 1A EA 88 A3 12 C3 39
 E8 B6 E4 F2 EC 28 0A 7F A4 D9 9B 13 34 C7 BD 85
 CD 94 09 6C 35 0D 35 79 BF 8E FC 92 57 47 FF A3
 B6 DA 20 45 C3 BD 1B AB 60 A5 C2 C2 C8 14 F0 DE
 C1 D1 55 6C 6A E7 5B 3A E4 D3 81 4D DB 63 B9 52
 BF 60 4C 43 DD 31 19 67 FF 3D A6 AC 73 E6 7A 88
 24 94 79 38 EA DD B2 B1 D0 B5 E9 AE 28 9D 31 BC
 E0 8D CA 53 6F 6B 48 33 6B 7C D3 D2 EB 07 BE 93
 53 CF 02 F2 F2 21 73 D8 0B A2 32 57 9A F9 2B 86
 A8 E9 DF E7 08 0F ED 29 40 34 A8 98 A4 8D E5 CC
 65 EF 88 7A 88 2D 32 EE 09 62 32 3D A4 02 DB 55
 EA DC 2F FA B6 7F 3E F0 08 4A 1F A8 45 4D A3 C6
 D4 90 88 4E A7 40 B1 58 49 35 D1 28 60 A4 82 9D
 D7 7C AD 97 F3 67 4B CE 53 C8 C3 D9 90 F7 85 9F
 0E F8 FF 44 3E 34 25 A4 1A 8F AC 3A 9A 43 42 13
 48 5A 95 34 5E C3 3B 2C EA 27 C2 98 24 7B 01 45
 00 22 20 54 B2 7D 86 97 DC 87 CA 89 8D CF 3E 68
 59 82 32 66 6F ED C3 C2 06 A3 43 85 62 FE 82 B8
 46 DE DE 73 48 E4 D1 87 57 07 9F A1 AF C9 A9 AE
 69 99 7D B4 30 3F DD AC A0 AD 4A 45 C3 03 F6 B2
 D0 64 8A E1 14 8D 68 3E 70 E9 E8 E7 07 EF A6 19
 7D 74 45 3D F1 0A 7D 65 3B 22 B3 AB 71 E2 7E 78
 91 EF 9A 70 54 07 E3 85 2C A1 6E 02 EB 54 B3 B2
 C9 17 5D D7 CC 86 37 C4 B9 B1 47 FF 7E 60 1C 76
 85 E1 CC B8 E0 3F 01 A1 C8 C0 02 76 47 59 72 4B
 B0 C6 18 7D E8 B7 60 77 1F 08 C7 A7 7B F7 35 C8
 E0 AA F5 6C AB D7 5B 57 B6 7D F6 DC 3C 5C B7 84
 F8 DA E0 44 F6 F8 97 8A 35 31 74 19 33 43 DE 2D
 FC 4F 6E 5D 09 AA 75 74 07 D2 B1 B0 2C C8 73 11
 16 96 CE 6B D9 DB 8E 5B C5 33 5F B3 61 86 38 73
 94 98 2D F0 38 20 75 C9 F7 77 C8 C3 4B C1 E5 6F
 BE C3 8F 2E A2 C6 C7 D8 43 12 AF 65 90 5A FE 69
 D6 76 94 55 81 C6 B7 88 08 C1 E9 2F F1 22 AB 19
 02 3C AC 59 4E E4 D3 75 73 4B 9E A3 E9 00 BB 19
 DC F3 77 2B F9 27 0B 00 D7 C5 E3 C7 E1 A6 75 25
 6C D0 DF 8B 9C E2 8A 32 95 21 40 19 19 EB DA BE
 DA 9D E3 99 7A 43 C5 E5 1E 20 3F C6 FF A9 A1 29
 C5 6A 91 61 46 AD ED C3 97 2B 89 50 96 39 47 51
 CD B4 F2 03 D1 F5 BF 39 20 C0 E4 0D 33 60 0D B8
 4C 33 E0 49 3C 43 68 C9 73 80 70 7D 5C 52 E2 0F
 C8 8C C3 40 4E 62 C4 3C A2 A1 3E 27 AC 88 98 C3
 48 C3 35 13 AA E5 F0 CC AC 10 4D E7 66 B2 33 B1
 4B 93 73 B4 C4 E0 A9 AF C8 FC DD 3B 84 FF 9A 7A
 2F 41 DC D8 53 E3 A6 A5 15 A2 E5 1B 5F C9 9B EE
 A4 37 AC 13 5D 07 E9 B8 B6 7E 40 85 D9 E4 11 0B
 46 60 8B 0E 66 AA 96 70 A4 3D 8C 9B 08 C0 32 35
 68 77 43 E4 52 E5 2E CC 7B 6F 45 77 D0 6B 47 4D
 97 0D 8E DF 95 54 FF 42 A1 92 75 F1 02 D6 C9 D6
 00 93 7A FE 88 38 D6 AB 08 4B A0 DF F0 32 C0 E3
 E1 75 7C A1 88 6C 76 57 4B 17 C2 0A 47 9F D9 4B
 F5 E2 13 1A 13 D8 D9 74 CC 4C E9 C5 B8 67 D2 1D
 1A 92 D7 D7 E4 E8 F3 B7 2D A6 E6 41 87 88 2F B8
 E6 B9 DF 94 8C BC A0 3A F6 D2 17 5F F8 46 28 A6
 C2 A6 ED C2 7B C1 EC F9 34 09 CC DE FE 13 27 94
 BE 2C A8 FE 46 CD 9E 23 FA 10 41 81 BB D4 56 CC
 DD B1 55 D0 3C BA 2C E8 CB 4F 21 BC 3B EB 24 84
 9A DB 43 B6 51 11 96 86 A6 E9 53 B2 0C 66 0F 15
 A8 45 A0 8A 91 49 50 DC E9 D7 34 41 AE 1C 4E 42
 98 62 35 A1 2C DD 72 4D 0A 89 B5 59 75 27 4B CD
 BD 01 CD 16 F4 28 0D E3 E0 E1 75 1B 8A A0 9A 5F
 BF C0 D0 23 44 01 26 FC E3 15 A2 AC 1D 41 98 CE
 58 C3 49 F9 37 02 8F A8 89 11 89 87 8E 0B 88 A5
 AF AD B7 46 62 68 30 7D 48 07 8B C6 BF 12 E3 BE
 4D 41 89 E4 E0 33 3C 32 61 CA 24 18 40 32 4D C4
 6C 06 0C B2 D9 0C C1 88 DB 04 71 A1 DC 5B E5 C1
 1C 4F 73 78 31 B0 96 F5 E6 F2 4A 5F 79 6F 6C 28
 0F 04 8D E9 5B 24 F8 4D F0 75 90 2C DB 0E A8 81
 E1 25 63 A6 04 72 F8 27 08 6A 80 14 2B 47 05 7D
 5C 1D EE C0 5D 3E 08 BD 99 56 5D 86 8D BC 44 AC
 6C 77 15 3D F7 9E C4 DA ED 6B 1C 51 A5 69 10 0C
 B0 CA 18 26 37 E4 EC 89 73 EE 04 51 6C 98 63 56
 74 C2 4A D1 64 0A 71 16 F6 3B C2 29 3F 55 A1 6E
 4C 6F DA C0 6E 24 36 6C 0D DA 5A 4B 0A 18 C0 EC
 04 CB 56 FF B4 6A F4 B2 42 0B 6C C7 FA 70 92 57
 1C C3 5E CE C2 E9 64 20 CB B4 14 49 C3 3B 75 48
 D3 F4 BD FE 9F 62 7D 13 38 01 2A 73 87 B5 2D 8C
 56 7B 90 66 9D F7 06 38 18 71 A5 DE 8F 5D EE 85
 06 A0 0C D8 E8 FB B5 B0 64 66 33 D4 11 D7 26 3B
 AF FD CB 28 D6 F6 5F FF 23 3E 22 A6 C3 39 5C FB
 DA B9 E7 F9 91 D4 E0 84 00 D1 00 91 EC C5 FD 16
 46 96 CE 86 7A 8A 2F 57 EC 14 33 CC A7 A6 76 A9
 14 06 BF 25 65 CB 27 07 0D E4 4A 4A 9C 42 8B 7F
 C5 5F 72 7B E2 29 A4 41 B4 41 10 10 9A F6 7F 5E
 E4 6E 58 2A 71 8F ED C0 47 E8 24 03 ED 35 AF B4
 B2 70 FE 61 DB 4B 54 1F 8A 52 E1 58 C7 63 9E 1A
 B2 53 73 4E 68 07 2C 42 18 7B 2B 77 B2 C0 4E 21
 8D 31 0A B9 AE 4B 30 B7 E3 C4 00 CB 46 7A D5 58
 D6 DB 5A 1F 87 32 AC 0E 8D 9B C2 37 A9 E2 51 D9
 1C 02 27 34 B0 C6 7B 8A 96 2D D0 A3 E2 A5 13 BA
 19 46 25 66 6A 10 00 F2 68 27 47 27 EC B4 81 CA
 46 49 E9 31 96 47 0F CF 10 2B 00 94 1D 28 C9 DC
 11 9C 46 A3 77 B5 EE 5C 3F E3 77 BE 1D 8B 84 7F
 70 08 C6 E8 8F 9D F6 CD 0D 94 DC D4 F8 C2 C3 38
 03 C6 25 34 31 50 39 E4 C8 A7 BA 42 30 7D 58 2C
 6C 96 D3 66 61 0A FD 89 D1 15 7E 5C F9 15 CD F0
 F9 9C 22 F9 65 D5 1D 98 62 D3 E9 A9 93 48 B5 68
 92 DF 09 EE 65 64 5F 83 B9 43 19 1F EE 20 54 83
 3B CD 11 3C B4 54 D9 BA 7E 19 6C 36 99 0D 45 6B
 6F F4 76 18 2C 67 66 78 81 93 2F 60 C9 41 44 8A
 3D 81 6C 9F FE 49 CE BF 6C D5 BC D9 68 F7 64 C1
 7B 58 DD C5 FB CC F1 20 56 0D 03 8D 2E 77 14 C5
 70 C7 1F 89 BF 2C 38 3A 38 E0 84 8A A7 E1 A8 EF
 CB 47 8C 21 02 B7 43 88 0F A3 B0 86 DE 37 88 5F
 CD FD 3C 9F E8 5C 01 67 DA CF 6D E5 C0 67 AE 98
 FE A4 E3 DC CF 3C 07 D0 10 D5 C2 2F F8 A1 43 FF
 9F EE 02 A7 E2 07 24 9B EE A0 80 B9 C9 33 1A 3D
 2E D2 C9 82 75 1A A2 E5 A2 55 C5 1A 3B 38 02 D0
 34 6A 37 EC AE AD 24 98 F0 8E 87 6B 76 99 31 54
 3A 88 A3 7D 13 79 28 A7 5B 18 48 26 FC 96 30 35
 10 E8 0A 93 27 0D C8 07 2F 51 71 DE 49 07 B3 02
 6E 42 30 41 FD 1A 92 16 7E F5 52 8F DD 28 2E 08
 61 B8 95 DE 5D 08 23 77 CB 3B 01 F1 35 24 F7 20
 B3 08 0F 3F 18 B8 AA D4 0D 67 5C 55 8A 7F 6A 1D
 92 96 2B 7E 2B B3 D2 0E CA 19 81 52 F6 63 65 AA
 78 3C 8D 9F 1F D2 8B FA 44 DE 0E 56 66 1A 1C 6D
 02 DA 3D 54 5A 01 8D 26 15 CA 3D B2 CE A7 87 FA
 F9 DC D9 68 3A 28 CC 63 3F 81 C9 6B 8A 44 54 42
 B3 E8 25 06 D3 3B 99 BB DF 6F 0F 1D 43 4F 06 BA
 28 05 08 28 84 F6 92 8E 43 EB AD 3E 18 4B 1B 65
 DC E0 54 09 27 88 47 68 23 15 01 00 50 FB 0E 6E
 32 6C FB BA 7A D9 E9 B6 5D 69 45 95 8F 27 7E 71
 1D 1C 83 D4 1A 1D CF DD B7 8E EC 36 FA 87 C7 7F
 BF 6C 3A BE BA 7A E4 6D 65 4E 07 93 DB 28 F0 DA
 98 DE 87 18 2B 87 CC D8 05 E9 C1 58 4A 5A CD 6B
 35 54 B0 3F 36 97 E7 06 6F CF 03 67 BB ED D8 8F
 56 34 DF 6E 99 9B CB DC 6D 9C C8 8E E7 5E BA A2
 1F 84 09 CA 41 01 C3 A9 06 29 DE 09 A4 36 4F 16
 AA 66 F4 8D 87 25 19 59 B8 AF B3 6C 83 09 AC D9
 05 FE 6F 1D CD 1C EC CE 15 6A B9 EA D5 C2 E3 0F
 69 8C 0D 48 31 61 C1 7E 97 55 85 47 D4 4E 6B 89
 99 A9 90 8E 8E 11 9C FB E5 FC DE 00 5B B2 F7 C2
 20 35 D4 B3 41 E9 C1 FF C4 8C 4F 8A 17 66 90 0C
 30 68 36 23 98 CF 98 07 13 5E 29 EF BD 81 B2 86
 8C 0F 44 EE 53 96 A0 F0 E6 16 32 00 43 59 6E 1D
 AF 9E BD 01 89 25 03 0E EB AD 69 6E 26 3B 91 FD
 F5 87 16 DD E8 BB 90 EE FC 1F 5D 6D D2 95 F5 44
 6E 88 E3 98 BF 84 35 9E 9B 49 9F 62 2D B1 0A ED
 7D F1 54 FE 65 94 45 90 95 7E 1A B4 FD E1 99 BE
 B0 FC B8 9B F4 90 3D D6 0D 68 A8 CD 4B AA B3 3C
 C4 0E 63 EE A0 22 EB F6 D8 57 0B 21 8C 8E 86 03
 44 51 76 20 DA 3D DB C1 C2 50 EC 23 17 74 B9 EE
 CC F0 32 F3 2C 67 06 49 2C B6 37 33 76 15 BE 07
 43 D2 4F F3 BC 60 41 33 9F 19 94 C0 99 3A 99 68
 29 C5 B2 27 BC C4 92 DA 31 03 53 28 13 F5 0D C1
 D4 1A 44 1D A3 D0 0B F1 88 FC F2 2A 45 B2 52 75
 87 E7 38 82 DB 88 8E 65 34 E3 5C C3 8D F9 8B 0E
 01 C6 49 73 88 4C 3F DD 05 B7 5D 94 DC B9 BE 1D
 5B 42 A3 FA 8C F3 9E C2 39 88 8E 01 B9 F0 72 55
 DC 3E 55 4D 16 D2 67 15 6D CD 2B 7A 45 A2 6B 4B
 B4 D2 78 D7 74 EA 52 F4 59 AD 54 EA B0 CF 37 04
 7D 86 33 D8 D6 39 96 9B 67 BB E8 98 2D 7C 51 E3
 B4 13 92 85 B9 A7 D2 DE AB A0 9F F3 67 75 9C 5B
 B6 4C D7 46 26 1C 78 15 EA 91 70 C3 45 A4 29 BA
 32 6E 52 47 DE 77 11 B0 3F 7B CF AE 38 6D 28 3D
 64 B0 0F B1 49 FB A6 6D 1C B2 CD 96 12 BA 85 FC
 D0 CE F6 61 52 98 C4 C2 23 01 83 28 47 AB 27 3D
 E3 39 19 07 14 48 9C 3B CB 80 45 ED ED 9D 65 F8
 A7 C0 6B 28 59 B1 78 62 1D 0F E7 5E 92 BA ED 44
 83 95 D8 7B 33 3F 99 F7 D9 9A 53 4A FA 14 7D 3C
 30 DC 96 BA 48 0B 00 56 3E 02 53 77 E5 FF 5E C2
 2D 37 D8 D3 14 7C 4E 86 8B D7 95 A2 1D EC F7 4D
 A0 18 9D 50 27 37 7D 20 D3 B6 69 3A 4D 8E 53 50
 91 86 C1 63 9C 1B E8 29 02 A5 57 B6 07 47 5A 0A
 77 2F 1D 37 FB FB C7 73 5A 1F 56 02 B3 49 A0 78
 3A 92 4F 94 B0 35 EC D0 EB B1 D4 98 40 83 82 3D
 3E B3 22 86 9F 6B 0A 26 38 32 D3 2D 13 53 5E B1
 0E 3E 83 D4 A7 1A 9F 66 F7 E5 F9 3B 4A 1C 6F 62
 6E 18 B6 0C 1B 54 03 94 2F 0F B8 B4 69 55 FB 3C
 6A 92 0A 6A D8 4D 08 1E AD 70 63 A3 61 B1 C1 69
 53 FD E9 46 39 23 83 7A D1 57 60 7C E9 51 A9 36
 80 F8 3D 7B DC 0E CC 62 5F 27 34 F2 D9 DF 10 53
 A0 43 80 80 69 1B 95 CC BC 00 BF C6 D3 A8 2C 1C
 92 39 A9 71 AA 5E 67 D6 E5 7C 5C 89 50 43 94 71
 D1 23 69 FA EA 30 A8 23 57 91 6B 85 EA 77 9D FE
 D3 3C 18 DB 6D A4 72 51 FA 3F 96 97 78 5D D6 64
 6E 52 08 97 28 2D 08 39 BD 9C 45 B1 90 7F 39 C4
 90 A1 56 3B BF F2 2B BE 3F 3C 15 E0 90 3F F6 DA
 88 A0 6E C4 B9 6C 87 A0 B0 E1 D9 EB 05 25 17 2B
 32 22 AA 97 9C 72 20 8F F7 FD 14 50 C5 1C 42 5F
 F3 0D 7E 88 E7 D3 CF 3F 2A 21 C5 A9 A4 7D A0 8F
 86 68 2D 10 9C 6E B8 BE 30 91 BC 2F 81 5A 05 0F
 9D 36 7D 52 84 2F 4E 7B 8B 7F 33 AE 0A 1A 4F F9
 4E F6 60 21 92 C0 A6 08 C3 50 98 6E BD 4F 1F D2
 D6 AF 2C 12 31 59 A7 45 54 2D 64 3A 29 8D 69 0C
 55 D7 39 99 45 2B F1 75 74 BF CB 1A 77 7B 45 25
 B7 0B 60 5D 8F AD B9 CC 82 28 DC 97 78 EE 8C 2A
 1C 0B 23 A9 38 7A 02 57 60 77 D0 F6 C4 D2 5C F4
 A4 C3 F3 C8 7C 5A BF 7C 7E EC 30 79 5D 2A 2E 92
 6C 08 6B 99 CC E4 5E 95 88 09 99 39 1B D2 49 01
 27 93 8D F8 D2 48 1F 12 D6 E2 B1 FC 63 D9 35 8A
 06 53 68 0D A5 AF 3C 0C F4 71 EA 50 E1 D3 1D E5
 4C 34 79 E2 1F DC 1D 56 61 DC 5C B7 D6 84 40 52
 7C 7B AA 37 C1 BF C0 8F 37 98 F7 A8 CE AD 92 E7
 3B B9 71 49 F8 00 3F 9C 5E DD 5E 00 DA 5F 5C 5C
 EE F2 BC 12 06 0C C0 7F 1B C9 86 2D 06 6C 53 2B
 02 E9 9C 88 06 75 AF AD FA 31 93 1E 85 26 7C D9
 6B 59 D0 0A 77 EF C6 6B BB E7 6E F7 37 82 4D 3C
 B3 01 7C 4A ED 92 29 B0 F3 FE B8 A1 81 23 54 9D
 1E 70 AA 3D DA 97 B3 81 9F 25 0C 62 BD 46 0C BB
 33 67 7C 63 5C 92 EE 79 19 C2 FB 2F 78 F8 85 CB
 54 E6 AC 33 50 95 B4 C3 C2 99 47 8C 65 6F FF 78
 73 2A 41 FA 7E 2D 79 B8 E0 4C C3 C4 6A 7B 89 34
 49 42 7E 23 8C 02 7D A7 0A 5F 60 75 92 D9 E7 36
 8C 6B 70 2E 7C 75 B9 1C B1 A3 42 19 30 D5 DF 71
 30 68 14 2D 0F 8A E9 E3 B1 EB F7 48 D0 11 DF 36
 F1 0E 3F 49 63 88 BB E1 E1 0A 2C 74 7D 0D 3C B8
 1D 06 1E 59 3B 30 B9 C2 D6 F4 B0 AD 08 25 A4 4A
 83 A5 3D 37 A3 51 D7 F5 6C 5B B4 D9 EA EE A6 83
 F3 9F 37 D5 C5 5B 3A DE AE BD C5 AC 87 A9 EF AD
 87 35 0D 7C EE 6C 86 13 16 33 79 A8 22 DE 8E 7E
 2A 23 90 C2 03 74 12 E4 02 1D DB 7D B8 21 5C 51
 DE 70 D1 DF 7B 62 37 56 2D FA 71 47 7E 4B 8F 30
 A8 66 E0 47 35 97 6F EF E9 AD 35 42 37 60 66 59
 66 E5 C3 DC 20 A0 AE A4 0D 5B 94 83 FC D8 56 CF
 E2 8D 21 BE F1 B2 63 59 0F BB EB 10 16 53 C2 88
 FE A9 D8 E3 06 1C 4E 7E 02 0D 10 CB 0A 2A 86 9A
 5B 0E 2B CE 8C B2 F3 E0 F8 9C 30 8B 88 E2 69 09
 D3 96 5A AB E1 77 A4 D2 80 C6 6D 26 D0 1A 64 A5
 35 57 55 E1 B5 06 0D 4A B6 66 09 80 AC FD AB 01
 94 ED 22 0E 88 CD A9 E8 A2 7D 82 CB 5E 6C E4 78
 7B D2 7B 2A D5 1A A5 4D FD 08 C0 87 99 A5 0A 68
 E7 59 58 4D 49 C0 0E C6 C4 0B F3 1D 0B D2 52 A9
 55 6F D4 EE 06 BC B1 62 1B 31 D1 7F B6 BD BE 9A
 36 43 DB 7D 5B BD 32 D1 05 ED 0C 52 F2 BE 69 1E
 BD 6D 9F 68 06 1A 51 5F 17 CC 78 95 E8 0C 9D 10
 9D 88 71 EF 33 62 03 16 8F D0 7A 13 ED C1 65 7A
 5F 3B DF 0B 91 0A 4C 5D 61 A1 CF 26 F5 A0 B7 28
 40 BA F4 E8 AC D4 E1 6D 91 A6 0B 55 9E 52 7F 92
 3E 48 DB E1 2A EE 18 4B 3E F7 A3 CA 3F 82 01 F0
 BB 01 A1 ED 2C 87 65 56 B6 00 57 04 01 DD 15 E9
 F3 2A A9 A9 A5 4B 61 42 62 29 CA 6C D9 A2 BE C5
 87 B0 C9 59 23 7C BB F6 3F 43 80 D9 EF C3 7B 4F
 BE 32 90 38 23 17 9C DE 35 81 B6 04 14 2E 2E 3E
 39 A3 32 CD B3 3A F5 60 68 5D 4E 7B CA 41 6A 18
 EB 0D F0 90 25 98 CA 40 95 7B 9A 01 2F 6B 65 D3
 85 0B 9D A9 D7 68 21 91 6A D7 5B C5 55 C0 47 ED
 B6 11 31 B0 E4 FC 1C 12 23 A9 84 08 04 E1 51 35
 78 DF 6F 95 DC EB 04 74 08 78 6F 4D 3C C0 49 8D
 64 8A 01 8C 92 0D B0 94 B1 8B EB CC 2A EA 96 FD
 C2 AE BA 9F 66 8A 69 31
* End 1197446648 2094338160