* LTspice Encrypted File
* 
* This encrypted file has been supplied by a 3rd
* party vendor that does not wish to publicize
* the technology used to implement this library.
* 
* Permission is granted to use this file for
* simulations but not to reverse engineer its
* contents.
* 
* Begin:
 40 4F F8 60 C2 87 EF B6 16 C5 DD FD F3 45 E8 CD
 F3 07 F7 63 89 E7 7B CA 6F 34 8F 04 EB 40 87 D9
 E2 2D 3E 9F 6C 5B EF BF 3E 0A A5 21 14 ED 97 F9
 45 F0 53 2A 6E 74 B2 F0 3C 5E A7 FA 74 44 C8 7B
 3C F0 06 7B C3 3A CE CA A0 C0 64 DF BC 1F BB 33
 1C 31 D8 82 4F 0C BF 3B F6 6B 44 0B 12 6C 87 AE
 78 E7 19 20 11 B9 90 2D BE 32 75 D4 27 81 C4 C3
 68 4B 6A 1B 64 F9 E3 EF BD 86 96 B6 C5 DB EE D5
 5C DA 71 91 35 12 EC FD D6 29 9A 4F 9C 93 3A 6E
 01 E4 B4 9F 56 88 B2 27 4A 77 3F 4C 03 42 84 9E
 51 F1 71 B0 AA 49 AD 76 98 DF CD 84 AB A3 75 56
 48 82 C1 7C EA 53 C0 83 13 2B C2 1E D5 8B 65 37
 9B 23 BD 97 72 9D 9B 1E 1E FD 8C 50 BF 8C E6 67
 7F F1 94 63 D6 EC 1D A7 E1 72 61 46 E6 C4 E6 86
 CD 8A 3C 7D BF B4 DC 49 CA B1 3D 5C C8 00 1D 0D
 EA 1D 69 26 84 3A CC DC ED FD D1 8A 2A 18 85 00
 2C 86 6A 14 B6 33 E0 84 10 48 8F 71 4C C0 ED 7A
 F0 7F 35 62 E5 57 AB 55 B0 BD 38 90 1E 8A 56 C7
 FC 77 8A C3 30 D0 28 42 03 CF 3C DE 73 FC 95 F7
 BC C8 D4 05 E0 DB 1F 03 B9 97 D1 4D 48 23 F8 57
 8C 84 0C EB 15 5C F6 0D E9 6E 25 D0 DD 84 B1 45
 D1 88 CE 5E 22 47 E2 7C 06 DF 09 6E C3 99 F6 0F
 BA 04 1C DC 3E 4C 12 7B 7F FF 90 FB A6 B1 90 86
 F3 A3 1C 6F 92 85 2C 61 20 6F E8 DE AD EE 59 21
 4E 08 40 7D DE F3 6A A3 8E 89 1C DB 05 90 A5 2D
 1E A9 C6 AE 91 3A 64 CE 89 58 F0 8F A2 14 42 98
 5B 48 A2 8A 10 18 2E 62 87 3A 81 36 6F E0 6C 48
 FE F7 2D 9D 28 A3 FF 32 2F 1D D0 D0 0E 60 1F E5
 F5 D8 07 BB 9F 61 96 EB 9D 30 BA B3 E8 DF FA 52
 13 D0 C8 69 89 B6 20 1F 21 6C D0 2E 44 F8 DC 5A
 2B A5 7A C8 2D 52 E3 DA A5 4F 9A 9C A6 92 5C 2C
 5D BF 9D B4 1C 13 3F 64 FC B3 6F 11 BA 72 87 98
 76 6A E1 14 D3 66 32 68 6A E4 89 17 7D 6F EC D0
 BE 63 E9 AC F7 63 39 0F C0 51 59 2B 3A E9 34 57
 43 B6 FA 2C CF AB C3 E5 5A 2C 18 8F 2F A2 1B 9A
 4E FE 9F 98 5F 28 EE 26 C4 1E E5 DC DF 22 E4 FB
 56 AE E6 07 C2 CE 70 8F D7 6F 10 80 5A 84 06 9E
 1C 41 1F 5B DA 80 8A 72 C8 D2 67 95 BB 8B 7C D5
 A6 11 F7 F1 3D 86 AD 9A 61 B6 C0 27 96 28 B2 FA
 7E 4E D7 F3 DF 36 84 1A EE 32 C0 33 36 42 A0 4B
 45 F3 77 38 45 BF 01 5D 8F C8 36 3E 68 63 6D 20
 79 F3 B4 F6 BC 73 9D 8F 10 10 47 E9 CD 51 39 B5
 8F 1D A6 5C AC 92 E3 A8 E3 71 95 D1 D9 14 05 1B
 3C 71 1A 6F CD 44 19 54 B2 BB 05 A4 B0 0D B0 55
 C8 FD 4E E7 85 79 1D 69 71 E2 BF 5C 17 42 08 0A
 FB 2C 4C 4A D0 7B A3 5F 46 59 69 60 68 59 75 15
 3A 87 B0 F5 83 68 6C 65 D2 41 FA 11 5B 5A 30 34
 62 F7 9C 0B BD F7 3E 4E 5E B6 12 A3 AD A3 C8 9D
 98 AF 27 BE 14 E1 F3 80 C7 40 02 3F E1 89 62 E1
 15 F7 A2 CC D1 90 CD C6 05 44 40 6D C4 36 55 BE
 A3 1B C4 A9 3F 93 D8 C0 3F 4B 1D 65 76 32 3C E4
 DB D3 84 7E 5D 88 C6 D3 A0 6A 1C 87 02 DC 4F B4
 D0 A7 65 D3 41 17 82 A8 2C 72 6E 6B 7D 27 66 2C
 05 02 47 97 5F 22 0B B6 4F C3 79 37 59 BB 0B C0
 50 A8 D5 48 63 1C C6 75 F3 2C EC 38 21 DF D6 29
 61 A5 48 9F 67 D2 CE AE 14 29 F9 A5 D3 82 E7 4C
 4A E7 55 E5 4E 21 A3 58 E8 46 E3 96 3A BF D5 E6
 A4 3C 98 20 C8 C4 7E 3E 6B E5 B7 2A D6 86 D5 2E
 C5 4B 2C 42 9C D5 94 A9 EF AE 18 CE 64 38 A7 7B
 ED A6 5E 9A 90 39 5B 9E DF 0C 23 82 77 7B 93 23
 B0 24 BE F4 49 14 D2 14 D8 B5 69 24 96 F2 3C 43
 70 87 37 B7 BD 21 36 87 95 FD 45 40 9B E6 0A E6
 BC B8 33 D7 A8 82 E8 56 1C 87 E3 D1 FA 6E 6D 40
 97 3C 6F 56 CF 25 2E 69 D1 6D DC 9F 56 3E C9 5D
 F3 86 DA C6 8B 62 5B F1 67 82 02 54 6F 46 9F 5D
 08 A7 DB 47 E9 B3 5B C1 FA 45 A1 E3 24 5B BB AA
 8A BA 0F 36 B8 E4 3B 98 D9 4B 7D A4 85 21 46 7F
 80 E8 56 D6 49 25 D7 5D 83 DB B9 46 18 B6 EE 65
 C4 40 14 AD B0 20 E6 45 8B 40 F4 07 6A 76 BB EC
 19 1E DA 89 C5 0C 3D B9 57 9D 07 67 68 51 7C A4
 60 EA 7C 29 36 24 AE AC E9 D1 C8 E9 E0 28 49 C0
 82 6C 8F A7 9D 41 55 5C 97 89 F7 B9 86 30 72 EE
 51 64 F5 77 0E E4 45 EB 38 C7 9C 65 EF 06 1D 7B
 6E B1 5F B7 5B 03 85 60 E4 12 DE E5 7B D5 EE 31
 96 ED 57 9F 5C 5B 94 1C 37 FF D1 52 B3 2C 69 8B
 22 5A B5 0C E8 8F A8 C3 B7 F4 BD F1 07 3D EF 0E
 AE BF 09 B2 A4 40 54 06 45 F9 E1 6A 15 CD 43 E0
 B6 14 25 59 1B 61 0B 2E 42 72 EF 0C B9 9D F9 7C
 BB FE A0 55 B8 A7 1C C0 B7 D8 83 55 59 2B D2 67
 E9 B9 93 30 A9 31 E8 5E 79 B0 60 C3 AD C0 EF 73
 BE CE 83 F1 DE D0 5F E8 AA B8 BF 1D 99 85 53 18
 98 BF E6 F5 F4 24 E3 F9 FB 8A 95 AC A3 8B 44 22
 AA 61 66 27 6B 2C 96 47 C9 13 48 43 11 6D 5C 49
 05 F3 45 04 1F C2 B8 00 DB 93 C5 69 64 CF 26 A2
 C3 6F 0E C2 FB D0 3C 78 ED 57 73 AD 2B FF BF 8B
 13 88 35 96 3D EE 64 58 0A 38 C0 1B 2E B2 80 33
 3D 54 4D 0E 01 16 70 29 9E F2 44 57 66 AF CD 08
 2E FD AC 13 F0 46 9F 2D 82 0E EE D1 A8 4B 27 18
 0D 33 B9 1D 98 AA 75 DA 3F 5F A4 64 FE 11 05 A9
 E4 08 29 DD 50 6D 75 9B 57 33 02 71 50 F0 E7 2A
 76 2A 06 B2 C3 2E 91 2C 3A 2E 01 DF 88 39 05 B0
 BE 25 E9 89 1A F5 9B 4D 93 46 A8 59 67 56 39 E3
 59 CB EC D6 82 04 38 33 7A 91 56 C6 F0 FA DE 60
 F2 62 75 BA 4C 8A DC 1A 3E 3A 1E 8A 83 57 A2 6E
 9C 63 18 10 EF 13 CD C2 18 CA 9E D7 B6 37 01 98
 F2 15 C9 C0 E0 9E 4B 00 1B 12 D5 06 47 62 03 C2
 4F 98 82 A5 C4 75 06 D6 B5 F6 85 D7 22 46 C3 D4
 FD ED D9 E2 B9 97 DB 2C F4 66 F4 B0 D1 41 83 C2
 82 1F 26 E2 5B 51 66 75 DE EC 1B EB 6F FE E7 7D
 AC CD E0 53 05 73 9A F9 02 C4 80 3F 8E BB F9 24
 C5 17 C6 28 0C 44 41 1E D8 3E CB D7 15 37 9B 9D
 64 17 69 F4 97 87 7A 6B E6 20 D7 7B FC B0 18 6D
 EB FC 48 66 00 87 A7 99 DA 43 93 96 A8 E9 44 71
 74 A8 5C 4E 2B 38 A5 FB 81 91 3D E7 DC 6C 6A A0
 4C F6 A8 C9 38 FD 2E 1E 9C C9 03 B9 08 B6 D6 35
 92 99 DB 2F 1D 70 C0 95 AF 19 AF 5D 6A 71 38 28
 C2 47 C7 41 1F FC 24 B1 FD F6 2C D6 9B E3 6C 95
 73 14 46 6D 34 5E 67 A9 D4 A3 14 0F 52 33 24 8E
 8D D0 1B 30 B5 B3 96 DB C9 54 60 6D B7 18 88 FB
 E9 23 63 B9 A6 6B B4 F9 A9 B7 69 28 F7 66 E3 04
 12 C3 DF C8 14 AC 13 6C 68 34 AC 24 F7 81 C7 80
 FE 7F 82 99 31 98 26 47 85 B2 2F 8E 93 2B 71 78
 50 90 47 F2 83 D8 1B 92 10 17 D6 03 3D 0D BC A2
 D1 6D 9A 85 8C DA C3 E6 63 75 46 03 0F 76 CB 60
 99 93 56 8E 57 A6 B9 7A EB 61 03 E1 92 BD 06 12
 F2 C7 E9 6C 2E 6D F7 CB E8 E0 13 04 A9 F2 B0 0D
 7C 70 46 3B D1 EF 15 EA 04 E2 68 B1 A1 5A 8A 43
 E9 7B 99 30 5B 71 2F C9 E4 EC 6C DD 5E C2 56 3F
 79 CA 4A 07 85 31 72 13 32 3C 38 F5 87 E7 AF DE
 11 7E 5D AE 9C 60 67 11 59 33 01 FD D3 48 EF 6D
 E3 11 8E BF BC 7C 51 3D C0 54 6E 49 28 23 CA 19
 07 80 1A 4E A6 CF 8E C2 F6 04 DC 13 46 13 B3 03
 79 8D F8 F2 D5 21 44 40 05 59 8E 32 64 29 C3 43
 E6 92 81 48 73 FF 4B 8E C4 96 C6 E8 C0 86 5D 15
 3A 65 2F FF BD 70 A2 35 87 DA 54 7D D3 9C 57 07
 02 E1 09 80 10 65 12 21 7C 28 3E B1 75 04 DE 8E
 39 31 7A 61 EC 71 2E 9D 62 DA B7 EC 29 23 DB D5
 B3 9C C7 81 A7 4B EA 70 FC 0E A1 1B 43 7E 4C C6
 0D B2 70 45 5E FA AA 94 56 78 17 DB 26 6C 01 A1
 50 93 F6 40 AE 19 EA 7A 77 4A 0D 0B 11 A4 C9 F1
 B7 BF 16 F5 00 CA DC 47 27 69 8F 39 D0 58 E3 1C
 EC 73 D5 39 FF E5 E1 64 1B C1 FE A4 2D D1 4B F6
 C5 B1 3E 15 B6 F6 5A 22 16 18 C0 42 0C 10 3F 1D
 CA 73 98 31 3E C3 13 74 6C F2 49 80 9C 9C 12 CA
 EB 69 F5 77 4A EA 81 89 1C CC 98 AE 76 06 34 41
 13 37 51 28 E5 D4 BB 20 71 A4 99 33 3C 67 99 00
 C3 05 70 09 2A 99 8A 40 D4 9D B2 FE C2 57 6C 84
 50 1A 8F 71 3F E9 1C 6D B8 61 0A EA 9C 82 28 59
 90 4C 16 85 9E 99 2C 22 0E 32 5D D6 A5 C1 B0 F2
 44 45 0F 0C 99 B5 D0 D5 C4 79 24 61 CF 3A DA 88
 CA 80 26 98 94 1B 53 F9 41 51 64 5B D5 B6 E9 0D
 09 AB 57 57 98 6D F6 7D BE CB DE 0F 4D B6 40 BE
 86 5A 5D 23 A3 D2 47 03 4C 77 14 E9 D8 1A DC 46
 6A 93 4B E5 D5 1D F6 C4 0C 3D D5 25 4F 8A 97 FC
 31 81 46 C9 68 6A 95 75 B6 47 EE 1F 29 21 44 7D
 2C 23 8B 40 E8 D9 D4 57 12 37 89 AC 01 81 22 1E
 D1 3F 5C 3D D7 FA 14 93 7C 09 E0 06 8E E9 A6 4C
 B7 2E 8E 53 06 82 D8 FD 81 0D 84 49 A0 9A D8 8D
 85 3D 9D E0 BB 90 8F F2 9C BD CC 30 C2 12 82 82
 A8 A7 CC B5 F2 C0 98 8F 4E BC 6A 7C 49 C9 62 88
 51 E4 C9 A3 F4 92 6B 87 6B FC 76 62 EA E0 F0 EB
 32 BD 20 AA 7E 2F A3 1C 94 6B B0 88 34 09 6A 7E
 1F 74 A3 4D CE 46 48 9A 4E 64 66 FA 18 4E 5F CD
 94 57 3C 4E 17 F4 A8 B5 B3 82 FA 92 7D 08 AD C1
 60 F3 6A D0 4E B3 E1 82 85 5B 6C 30 48 4E 37 D3
 4B CF C0 50 B1 42 9D 6D B1 AE 87 11 3C 34 2D 9B
 B6 5B BA C4 4B 21 94 4F 85 88 EC 15 7B D1 47 D4
 08 CF 3F 9E 39 B1 AC ED 91 23 06 49 32 42 01 EE
 2D 5C 6A 92 9D 23 FB 6A BB 4B 7F 91 E5 C5 01 55
 D6 AE 66 E5 23 8E D5 9D 4C 34 42 1E B6 01 9E 73
 29 71 85 EF AC B5 D4 86 E9 85 4B ED F3 54 04 F5
 55 05 8D 03 7A 21 71 E6 B9 B8 4B 81 7D 47 4B 3F
 8A 05 0B 28 B1 27 D3 24 93 AB 94 BF D6 F7 A2 0F
 14 C6 64 ED 78 36 01 8C F5 C0 7D A3 5F 34 0D 85
 EF 22 10 A6 FB F6 F7 11 37 09 C4 D8 FA E3 5D 27
 97 C8 F9 D1 AF E6 DC 64 6B 02 73 46 B6 09 B5 E4
 97 2A F9 80 11 85 BC E0 2C 77 AC A0 E1 4F 41 A5
 EE 9E A8 2E DC B9 3A A8 F5 2B 1D 42 89 BE 57 2C
 01 CE DE 83 83 09 43 EF FB 76 1B 68 D0 AB DC 33
 74 F4 09 A8 E2 7A EB F9 89 71 F4 E6 D5 C7 B3 67
 E7 5E 9F 4C E2 F3 57 40 28 1A D2 82 89 24 3C A0
 8C 5A 1A 58 10 96 8D D9 E9 62 AD CF F6 F6 60 34
 79 65 EA 63 F0 AD 66 08 20 78 F0 AC EF CE B0 36
 FE 74 53 32 C5 43 F0 F2 55 E4 A6 07 C7 65 AF 68
 79 0F EB 5A A6 A5 08 A6 0C F0 8C 87 B5 28 64 07
 9D 02 C0 B8 2B B8 AD 0D 06 C6 D6 CB 10 36 86 45
 2C 1A 55 E7 01 71 9D C8 C9 86 37 F3 CF E2 10 5D
 25 82 E3 9C D2 A7 52 39 B3 E8 BD 6D 5F 2F F0 89
 B9 12 E1 36 C4 50 38 82 10 0E 4D 3F 9E 54 42 22
 9A A2 2C 6C 8E 74 48 71 07 99 EE 38 98 C7 79 C8
 B3 98 76 39 51 E2 65 88 B4 48 D9 A7 20 79 AF 81
 58 F8 D4 C8 E1 6E 92 0A A8 0C 71 25 7C A4 C6 34
 49 73 48 DA E0 C0 08 CA 36 99 F4 84 58 F8 BB 55
 AA 47 67 4C 38 5F 7A 3B 20 F6 0B 85 71 31 EA B7
 28 0A 96 01 53 C2 00 DE FF A2 B9 4B E5 D4 CE 64
 6D 31 A2 D1 ED 0B 48 B5 0E 63 F0 4D E1 E5 F1 B8
 38 2F 85 6F 33 4B 53 40 D5 CE DB 9C 1E 8C DB 5B
 FC 4F 5D DA 5A 6B 3C 9E 43 EC A5 49 C1 B1 76 CA
 71 32 83 B4 E9 2E 07 9D 55 65 F8 10 AC 80 56 AF
 F8 F9 8C E3 33 1D 5D 8A 63 34 4F 90 15 C4 49 74
 91 BF DB 0F D5 E4 B9 55 52 1D D2 41 86 BD CB 75
 97 88 62 32 39 33 8F 58 2E 69 B5 A8 93 24 D3 EB
 AC D2 40 29 12 65 C7 52 26 7C 42 EB 0E 1B 26 F9
 68 4E 2F F4 EF B3 F5 95 BC 71 6E 22 1B D0 43 B6
 53 85 D9 E8 A4 7C A6 AC 80 98 01 A9 DD FB 00 9D
 A3 8F A1 CD F0 48 50 42 BE FD F2 8D 66 5C D9 B0
 50 EA 21 31 B0 A4 FA 71 F9 F5 CA B2 61 6F 8A 19
 E2 01 EA 1D 00 31 A9 F8 34 2E 23 C7 A7 3D 65 81
 C5 20 92 22 C4 1B 7E 87 8C BB 0E D7 66 D7 6B E4
 49 CA 3C 32 64 58 AF 74 AB 02 C7 98 4E 80 E3 E7
 DC 3E 5C 0F 1A 2F 25 15 D8 64 25 56 85 F1 C6 5F
 C7 6E 69 B9 CD 55 5D 56 D8 DD B6 5F DA C6 0E F6
 6A AC 2D 99 F6 39 5F 0C C4 28 C8 79 F3 50 27 1C
 36 CB 0A 2A EA 07 E5 FD 59 FD B2 F9 59 7D 0C 8A
 51 1B 38 F8 D1 54 77 7B 65 B6 ED 73 8A 5D F2 63
 D6 A9 4B 52 11 7A E3 28 9A D1 E0 24 B0 AC B4 45
 CA 2F DF 43 18 C6 96 D8 61 6F FE 1B 6B 85 71 49
 EE 1F C4 3F C0 BF 78 DF E9 30 96 21 F0 FE 41 58
 30 A7 64 CC 94 84 94 44 D9 8C C5 EF 5D 5E F1 AA
 2C 19 6B DC 0E 3E F2 CC 51 17 54 55 0F 8F EC A3
 01 E0 F1 FA 09 88 33 C6 0B 33 65 DD 97 B5 95 91
 72 DF D9 18 D7 98 DE 21 DD 85 04 FF CE 2D DC 71
 36 08 70 76 2A C6 E6 06 9E F9 F1 A4 93 80 26 09
 F9 8C 22 52 4F 33 9F A5 60 DB 70 7E 16 0E 33 68
 9E 2D AD C3 C5 55 9D 43 39 9B F0 D9 42 14 5A 46
 F7 10 26 1F C3 2B 13 63 5F DC B9 43 F9 CF 75 6B
 57 9E 52 3E 17 C7 25 63 12 8C B5 2C A1 4D E2 BA
 07 C7 33 98 D9 4C D9 5C 1E 99 67 2E 9C 8B AA 5E
 40 D0 07 FF 62 C1 09 7B B8 9E D5 72 43 05 8B 4D
 BE 53 75 A1 5F 20 D8 5D 0A 66 35 0A E2 01 64 CC
 27 91 B1 F7 60 F0 5C 02 BB 84 92 A9 86 89 62 60
 CD D2 26 5F 3E BC C9 ED E4 D9 1A 4E 6E EE 13 C1
 D7 29 A1 BD 6D FA 26 7F 6A 7A 06 B7 C1 67 6E 2D
 48 1B 51 B7 15 C6 ED 69 2A 3B 74 46 0E 73 00 8F
 EB E9 55 7C AA 88 C6 91 B9 73 E8 07 56 4C C7 AA
 36 57 27 CB 10 10 18 DB CE 55 B3 DB 44 66 18 2C
 E1 32 60 69 B6 F0 5D 10 9E 19 85 C6 F6 08 EB 66
 FB 7C 1B 27 11 69 21 32 B4 B0 B4 FE 9D D7 30 86
 28 90 AB 56 0A 34 59 34 AD F1 12 00 39 77 9B 19
 57 9E 41 8A 71 E5 B7 99 99 2E 09 3D CD D4 18 12
 22 9D 08 0C F4 BD FB DA 0E 92 1B A2 4F 61 8A 8F
 2B B8 97 95 E3 B7 AD E8 E9 28 C6 52 F1 7E 2E FC
 5D 92 6C 8B 91 3A E6 D2 40 11 0F 91 92 90 9B BB
 D0 2B F4 85 C0 95 0E 86 A8 9D 39 B2 82 AA 81 43
 19 A7 D4 CB D8 C2 9A 37 09 3B 76 F7 55 5A 90 92
 B3 40 70 C9 FA 7D 1A E5 02 EE 20 48 61 3D 71 A0
 26 46 CD 72 80 C0 7C DD 7F B3 5B 9E 95 E7 70 5B
 A4 9A 01 7E B2 1F 5D 24 A9 C9 A6 7C E3 9A D1 3C
 B7 86 6E AD 0F 9C 16 63 2A 8F 25 48 53 2B 5A BC
 CD 8A 9C EE AF 55 AC C8 A8 30 8C 22 B6 D9 66 F8
 6D C5 B2 1A 79 FA C1 4A B0 D8 3E 07 53 94 B2 D2
 C4 E9 51 E5 B1 9B 83 9F A1 CB 89 87 61 CD 73 64
 00 46 78 07 19 85 C1 68 53 3F E6 7D F9 E0 51 81
 0E 96 48 9B 36 2D 3D B4 09 00 61 B2 F8 F2 3D 50
 B4 58 62 D2 62 02 09 07 96 D2 75 6E 57 44 70 18
 AE A5 90 E4 09 AA 9C 87 A3 30 22 90 9B 08 38 2A
 35 F0 25 D1 1F E7 0B 43 F1 94 2F 4F BC DD A4 14
 E2 A7 BA 83 38 5D 25 2B 34 B8 CA 36 C7 00 7D AB
 23 9C F2 07 B4 B6 2F 4F 3F 41 13 E1 E9 5F 8F 82
 C1 50 70 5F 92 66 2B CB 55 CA EC 7A 1F F8 12 D1
 57 79 06 28 67 57 98 A9 E2 0F DF 6E BF 65 E5 3C
 53 9B 46 0C AE 3F 4A D7 61 A5 F4 5A 6D 9B 62 04
 69 18 E7 1C 75 76 06 75 FF F6 9C B7 90 ED 77 39
 72 4D 7A 56 4F F5 A1 32 32 F3 FE 63 35 D0 39 32
 88 A5 0B 5D 9C 8C 5F F8 BA 61 BD 65 9F 73 3B AD
 74 8F 0C CF 48 6B B3 1F D7 F7 93 14 76 16 2C 50
 FE 23 09 9F 86 CE 92 E6 AF E4 9A AD E6 41 59 E5
 10 3A DD B7 42 71 94 C2 9F 7E E0 DB 99 A2 1C 93
 C4 62 05 B2 D2 3D D6 BD 22 EE 5C 41 28 8A 4D 05
 B0 21 E0 63 D3 04 9D 79 DD 73 28 33 B7 DF 59 3C
 E5 72 E1 0D AD 22 D3 05 B3 C3 B5 79 81 86 4E 16
 E9 1D 34 24 4E 34 94 E9 63 00 8D 23 94 13 42 D9
 2A 6D E4 02 88 04 54 46 38 87 01 70 92 73 C2 94
 53 21 24 04 6F B7 76 D6 6C 44 FD 9A 24 8D 54 D6
 B7 98 34 79 39 94 1B 0B 1C 11 3A C6 53 15 A4 66
 78 9B BC 95 4F 15 53 64 9D 22 95 ED 11 AC 1D 3E
 DE 84 5C 4A 6C A4 38 8E E0 A2 02 A2 7F 47 86 B8
 04 98 37 B4 12 AA 82 FC 1B B2 07 B1 23 04 44 88
 C2 89 8F 2C 2F 90 20 5B E8 B6 D2 C1 10 FF 24 8B
 FB AE E6 AF 4E BE F2 CF 83 12 26 A0 35 90 35 C2
 DA 12 F5 30 A2 41 5E 05 FD DE 30 60 2D AE CC 45
 F6 5C B8 3F F2 93 11 32 5F 88 BE 4B C0 F7 A0 7D
 E3 A7 82 6F BF F7 CD F8 E8 A0 9B 68 41 FA 32 FE
 90 30 3F 45 EF 3C 9B 6C 30 95 B7 32 D8 40 E7 DA
 BF 9D 4C 63 D5 38 CA 0F 6F E2 73 F2 CB CA 50 C0
 F2 33 F0 96 BE 03 71 8F 7C 4B 03 C6 C9 D6 76 0E
 28 B1 65 BC 6C C8 5E 6E 34 C0 01 3E 05 10 C9 64
 6B 64 E9 BC BB 54 48 54 0F D8 30 0D 61 59 42 83
 35 8F 2B E5 06 D8 7B A4 3E 80 F4 5C CE A7 0D FA
 58 55 0F 69 14 54 66 44 DF 77 64 48 4E 71 0F 41
 97 4D 06 FA AD 61 88 2C 4D 04 AC 04 33 A1 ED 8A
 0D C3 EE 13 3B 4D D7 27 6A DC AC B5 CE 4D C2 73
 31 7F E5 7E B5 24 DB 5A 36 3F 26 B7 4D 11 6F 7E
 52 AF EA 0F 45 DF E7 CE E1 9A AE 60 3F 21 EF 11
 3F F6 BB DF 3F 22 F8 20 F2 78 D2 DF 4D 87 63 85
 DA 5B 1F 48 AA 7A FF 63 64 60 67 72 79 28 7B 04
 DA 47 04 40 19 4D 88 CB 6B 6A 44 70 B0 DB 47 92
 AC EB 9E 9D C8 78 C4 34 73 7D E9 83 5C 40 75 CC
 6C DE F0 E9 00 8B 53 42 C5 89 AB F5 EB 87 A1 B5
 98 6D BE E9 77 D6 0E 8D 98 7A 1D 48 93 2C 54 33
 1D 8E 4D 6C FC 40 6D 95 37 93 75 90 DB 31 2F 45
 03 40 7D CB BB EA B4 F0 7E FB D2 01 FD CE E3 93
 32 BF 60 A7 EC 5A 86 BF 50 06 06 79 EC 3B EB 53
 20 71 31 23 69 E2 B0 64 F2 54 88 24 29 66 F3 23
 12 74 73 B8 29 35 30 A6 96 52 15 F5 83 ED A6 D4
 6A B7 B2 7E 57 BF A8 CE 85 50 4D 07 BD B0 C5 37
 02 2E 0F 43 A8 D9 C8 16 7F 71 DE 92 CF A8 98 85
 1D 3B C2 26 12 D5 B1 86 E9 54 F4 F0 A9 65 F8 21
 18 D9 3C 8F C3 33 12 D3 1E 2D 29 10 72 0F 03 BE
 E8 74 74 8C DE 58 E6 C6 0E C6 BF C0 B8 83 06 00
 4C BD 74 EF 6C FC 9A 87 EE A3 B9 24 01 D4 2A 8C
 3D 65 DD 21 0B F9 55 E3 84 F0 4A DB 3D D6 09 62
 12 0B 3B 4B 38 9A BC 38 1D F2 A9 71 DE C4 EB CD
 80 E1 31 3B 51 84 6A 66 BB F7 7C 4F F2 9C E2 03
 34 7A 31 FA 32 24 D4 12 74 6C CD 37 C1 5E D9 25
 EB D6 AF 36 FC B7 0B 37 37 22 0D 0B EA 26 57 E1
 3C 49 96 BC A5 CD 7E D1 F6 29 0F E3 9D B5 BA 9D
 D3 06 A1 A0 5A AD EC 54 4B 42 03 11 13 E0 B0 3B
 B6 8C 02 11 86 EA C2 3A 01 29 2F B7 99 F9 1F A0
 F6 79 8D 00 8D 31 F5 CD 05 0D 3A 84 B1 FE DB 8B
 80 36 51 FC A1 3A 1C 75 6A 02 5F 2B B6 91 89 65
 0B 9D 6A BC 38 8B 64 B1 6E 25 5D B2 A2 2E 4F 1C
 13 E2 E3 53 55 59 B4 D0 49 C3 B5 17 C3 24 87 5F
 5B 51 BC 6E 7D 85 B6 08 10 EC 94 0A 01 2C 55 89
 88 2A C0 A2 6F 95 F8 55 5F 24 49 14 09 85 09 8E
 AB A7 16 2D 22 89 0C 62 8F 8E 87 10 F8 5E 25 DD
 E9 7E F2 75 44 BC 6B 76 81 B3 5F BE ED 44 23 CF
 60 7D 95 F2 F0 FD 0E 4E 5F 89 C5 2F C1 1F FD 4C
 06 57 C8 0A F9 33 9A 28 24 5C 22 59 F9 31 09 22
 F4 B7 8C DD F1 DB 02 B8 FF 38 81 05 24 82 DA C0
 17 64 B1 0B DF F9 05 15 64 47 0A 0E BA 3A AF 3C
 61 BE 74 0F F7 63 CB 0A EC 37 F2 37 9C 8F BB 1A
 16 D8 F6 B6 5C 73 EA B8 9F AE 2F 57 2D C5 2E D5
 8B 7C 60 DE 70 8A EB 57 48 D1 65 14 66 DB C0 9C
 3D 86 05 0C 49 28 D4 CD 60 C1 27 90 DC 21 23 62
 73 C5 6D 0B AD 0B D6 96 C2 8C 82 3A 90 F8 07 86
 9B 33 FA 91 D0 23 58 66 D6 3F CF 12 E9 28 F7 5E
 24 B1 3E 7A A1 7B 61 4D 14 A1 D6 CF 2F 60 49 09
 DC 73 F6 55 9A 65 2D CF A3 91 C4 47 44 38 FC 68
 EA D9 0F 89 C8 04 03 A9 CE 64 2A 1B BE 13 63 BB
 20 40 57 B0 72 03 6B F6 01 A4 87 B1 08 29 27 0E
 99 B8 3A 53 47 A4 C1 03 D3 68 7F 5F 7D ED 00 0E
 89 72 28 0A E2 6B 1D F7 A5 42 83 5D 13 1E D4 1E
 6B 5C EA C2 F9 15 11 C0 0E 92 23 4B C3 B2 AB 1B
 41 D7 45 4D B5 C0 58 AF C8 8C 61 62 BB 8D 4E B1
 D4 28 3C 20 CB 27 E8 47 21 B5 16 E2 22 2F 50 44
 BB 31 23 9E 38 3E 3D C6 C1 58 85 0B 06 56 12 E5
 20 BB 19 4E 88 48 47 A5 0C 15 78 47 D1 14 97 77
 46 4B 5B D8 6E CD BB 5B 44 F3 A9 54 A4 AF A3 AD
 FA B1 19 18 23 A3 B6 AF 54 25 F5 45 FB A5 E5 57
 6B 49 68 DC 91 F6 CC 96 B3 16 EC 83 E0 7B 41 DE
 04 B3 F1 C2 79 F5 A6 B9 02 E9 FA 75 BB 34 FE 95
 FF F0 E9 F4 B2 AC 34 96 59 B2 C4 4E 73 AB 15 A1
 B4 9A 5C 03 A1 E7 56 5F 16 88 68 51 52 FF B9 E2
 EA 53 E5 CF A0 FF 07 6B C3 D2 90 FA 0E 2A 15 26
 15 F2 2A 00 4B 9F 8D 9F 5B 25 C5 9B 12 72 C3 E4
 4C 8F 0B 1B 28 1D AA 31 2F 25 9D C2 5C B1 4A 7B
 05 47 7D 93 0B C9 87 4C 62 E6 44 98 EB C1 50 AF
 13 BD 16 15 0F 97 45 30 4D F5 B6 1B 2D DA 37 B2
 FE E1 FE E7 C0 B8 FE 90 B3 4F 34 C2 25 34 AF 6B
 74 6A 4E 09 C2 47 3B 6F E6 2E 58 E9 82 00 34 89
 1B 25 83 29 D2 E4 EF 91 DB 71 43 41 34 06 12 A1
 95 D1 45 31 8B F6 59 40 21 83 4B 3B 46 3D D7 68
 CA D8 E1 AE 11 05 46 E4 93 88 91 05 C2 03 FA 36
 7E AD 30 AC B6 36 54 01 F9 9B 18 0B CA D5 DE 36
 26 19 D0 59 31 F0 24 B0 C7 B0 F9 0D C6 97 F0 E0
 88 90 27 BB 8A 9E ED EC BB AD DE ED 64 BF 56 B9
 A0 62 31 0F 27 A0 58 F8 8D 07 E3 17 AC 2D 8A 55
 F6 0A BB 62 83 62 05 CA C6 3D A7 8B 62 33 35 3F
 B3 03 CF 4F F5 17 2D 02 9A 3E 85 F1 64 17 93 2E
 45 53 59 CB CF 92 85 64 3E 3B AE 85 59 97 B8 58
 D3 42 D2 E4 56 D6 03 96 1D E8 A1 4F F0 B8 8D 23
 8E 3E 40 F6 F6 88 B6 DC 7B 02 18 75 20 07 0C A0
 81 C9 28 CC 6A 75 89 0A 82 3D 53 B6 13 0B C2 82
 50 14 F1 16 1C 6F C2 7D 36 D4 5E EB 40 5D 05 09
 D2 81 F1 21 34 00 CF FE D5 7B F9 60 AE 76 93 77
 4D 20 3A AE E2 F6 CF 3C E9 0B F8 F4 EC C7 B9 5A
 78 2D B3 C9 F8 09 77 E4 96 86 82 81 84 56 4E 50
 B5 18 48 59 2C F5 F1 F4 B6 DD 5B 81 47 36 21 A8
 BB 92 FA 67 6A F8 18 41 2C BF E7 E7 9C 70 E2 36
 BA 7F EA 4A 8E F5 E1 1F 58 64 04 35 0A AD 61 66
 C7 EB 97 93 52 CB AB 38 AA 12 97 65 CA A7 E6 C4
 25 82 7A 26 77 55 7F 69 BA 7F 68 48 2B E0 00 8D
 8D 6B 2F 53 38 85 9A 80 9F 57 73 D1 12 B7 3E 54
 12 52 3E 8A 38 D8 70 50 03 95 44 40 01 D6 16 6F
 2B 22 4D 83 93 20 C9 8C FD 8E AC 5A E9 6F 5C B3
 BD FC 88 9A 20 AA 7D 94 E3 DC 5D 87 B3 34 F2 92
 27 D3 BB 04 90 D5 8F 6C E1 32 E5 39 12 72 FF CD
 E0 9F 3A 8A DF 60 71 A7 06 C1 EA 3F 58 F3 BB 2B
 BE DE CC 50 BB 85 82 CD 15 F5 BD DE AE 29 EA EB
 3A A1 0C 20 E4 36 C1 A3 07 A7 7E BE 1B 59 5D 50
 B1 95 EC 72 97 CB DE F0 B8 83 D8 AC 3E 05 8C 03
 4C 28 E3 29 E7 86 9A 55 BB F6 59 53 E7 65 E6 F4
 CC 9B 8F DB 79 49 9D 2B EC 41 3A 36 0D 3F DF 05
 A9 CE 77 A1 13 B5 FF FE E4 F3 42 6D 16 B7 D7 52
 BD E7 F4 F6 0D 82 40 21 3D BA 33 D2 22 2A 2C 92
 2B B6 A7 38 4B 75 36 14 D5 46 F2 9C E6 89 B0 C5
 48 71 5C FC B8 0F 97 9A 79 35 60 90 58 80 67 5E
 86 DD C3 F1 17 26 06 9F A8 6F 95 7A F8 D2 E8 78
 75 C2 92 45 66 2D FA A1 E7 67 48 A0 10 1B 87 B0
 35 71 FF 67 1A 01 4E BB C8 E6 04 12 2C 55 30 F7
 38 50 EF CC 38 B2 9B 1C 28 BE CE 1C 6C D0 72 9D
 4F EB 43 10 66 B3 3F F4 91 DF 43 A7 09 7B 9E 89
 C7 7E BD 95 21 7D 45 BE ED 35 EC F3 B8 FC 83 6B
 8A 18 C0 C5 E8 87 E2 D9 CD 40 3F 19 44 E2 A0 02
 0E FF B4 BB C2 34 DD 57 D6 32 30 F6 EB 87 53 20
 6F 06 D3 6F F1 95 B3 22 96 F1 18 8B 7C 79 8D 2F
 9C 42 8B 03 FF 73 08 0F 4B A7 C6 52 1B 21 F1 95
 C5 90 BF 31 26 4A 6A B4 12 F6 2D 15 54 BB D0 CC
 98 83 21 90 BA FF 2D B0 31 DF 93 A4 B7 3C FD A9
 C8 CD 8B 52 09 9F 11 E5 9C 97 65 3B 78 79 96 C9
 7E 13 D6 3F 73 18 23 D4 DE 35 61 12 F7 4F A9 73
 5B 44 AE EF 13 CF 5A F6 FF 0C 79 34 96 6F 97 95
 D7 B3 7A A4 F2 D2 CE A2 5B 79 24 92 92 B5 FB 5F
 36 C5 E5 C7 39 A1 C5 CB 8E 9A 87 56 E0 E8 10 1A
 9B F6 6B 79 8C BE 59 ED EB 38 A4 6C 23 D0 9C BD
 D0 62 A4 58 E3 57 1F 93 97 A8 4C D9 C0 5C 7F 49
 A8 EF 4E 1D 01 28 2C 57 F0 EE 5B 29 A9 2B 9E C6
 C9 F3 4F 51 ED C7 17 E7 86 81 84 B3 D4 B7 ED A6
 77 A5 52 BC 92 65 C9 E7 5D 62 07 1C CD 03 8D 78
 D4 E4 81 CB 43 D0 F0 CE 29 93 8A AE 32 6A D7 6A
 07 9F 1F 83 BE 63 E4 2F DD 33 AB 08 62 E4 07 EE
 AA 29 8B 82 24 7E 1F 77 32 BE 8B A3 15 C4 91 41
 A7 22 22 28 16 46 1E D4 A0 60 43 A5 44 DD DB 06
 14 19 D6 89 7C 72 B4 59 90 7E CB E6 82 C2 F8 D5
 9D 00 C9 08 98 F3 1B 1F CC 6F 8E 33 02 2C A8 BC
 61 50 3E 80 E7 57 FA 05 01 8D FF 77 74 BF BB 56
 CB F0 29 C0 FA 67 BB 44 20 13 50 6F 16 25 CD FA
 36 9D DC AA 3D AA 2E 30 01 2F 18 0B 37 6A 21 0A
 65 0A AE C1 2E 3C A9 FC 7F 17 AA 08 58 24 21 8F
 E0 75 5A 70 89 C2 28 C1 63 5E 24 39 DD 1F 10 33
 77 10 DC 23 97 3A EB 16 67 66 74 30 04 95 0A E8
 6E E6 15 F7 0A 06 59 25 92 85 15 59 41 27 F1 B8
 40 DD 29 A8 20 A2 07 5D 5B 9D 1A F5 AE DD 8D 78
 F3 2E 51 1F F8 1C 16 59 0C 91 27 06 CE AA 72 7B
 9F 48 0B 75 B8 59 01 54 4B DA DA 35 42 DB E8 A0
 B8 DA E5 6C 55 13 01 FE DE 9E E6 37 41 B5 FF 4F
 84 FE 2A 90 CD 9F 51 B2 65 EF D0 D1 14 F5 B2 85
 26 7A 6F EB 87 76 BF 47 E3 1A 9F F1 5E 87 12 44
 02 73 FF 4C 9C 28 3A 7F C8 2D 29 AB FB A1 39 51
 D4 EC A3 48 F4 C3 77 1B 5F 87 6C 3C ED 58 46 39
 0C F3 BF BA 7A CF 61 F7 1C 47 5F 9B 0D 02 CA 88
 CB 49 9E B5 31 CF 07 9F 31 6B F2 06 C7 7D 6B 05
 58 C9 AB BE 95 12 4E 46 CA 73 A7 15 4A 5F 45 B2
 13 BC E9 D9 E1 6F B5 8C 42 6D 32 D2 3C C9 6C 1E
 4F C3 0D F7 6F 47 12 B6 8B 39 9B 64 2E 5D 67 31
 32 A4 65 E7 AD FD D8 C7 4B 28 F6 76 16 78 24 71
 71 87 A8 8C F1 07 F7 0C EE D7 AC 35 BC 75 8A 36
 95 67 65 BF 6B 32 96 B6 7D F7 C9 36 73 5D C9 AB
 E5 F7 E5 EA A8 FD EC D7 8F 94 89 61 1A 4A B4 4B
 DB 01 E9 37 D6 6F A2 91 B2 9E B5 8F 9B 3E FB A8
 30 E6 36 3E D3 88 71 63 29 85 F8 D5 CA B2 28 F0
 A8 C2 62 5D 47 44 3C 81 E9 73 F1 AE 65 5B 56 21
 1B 2F 19 3A 20 7B C0 E6 23 F4 0F 0B CD 37 50 12
 87 16 A8 D9 C1 CB DC 3D DB 2B C0 FE 3F 47 74 12
 67 3D BB E1 0B F3 BD 6C 14 96 72 06 44 86 4D 33
 6F 72 66 CC C7 D2 8D 56 EB 76 09 86 53 80 B7 A0
 56 76 D8 78 2B 78 25 F8 EC BB 5F 55 77 38 B4 CC
 02 C7 63 76 0F 67 EE 40 75 43 03 F5 85 B7 C8 26
 89 DD 38 50 FC D0 F2 83 13 54 8A 7B B2 73 19 32
 7B 1A 27 C1 DC 66 16 87 4E F8 CF DB 1D 48 59 F1
 1F 46 ED A6 D0 F2 52 86 CA F0 7D C9 DC 76 D8 26
 D4 A0 E0 B2 DC 38 6F 6C BE DC 29 DE 0D 02 F9 11
 2E D7 3B FC 40 86 B3 DE E4 F7 C1 8F 2A 45 70 F6
 B9 68 6F 64 CD A4 F0 10 74 7C 40 77 F8 6F 81 B2
 2F 44 78 F8 F6 2C 14 48 E4 CB 7A 25 6B 6D 68 13
 ED 60 05 DB 87 B2 6C AF 8E 74 1F EF 6D 87 52 34
 C6 11 16 8F CF ED 7C 2E EB 10 D6 17 1D F3 B1 85
 DF E3 A4 1D B7 05 A6 53 6D CC 0F BC 09 55 E8 A6
 8C 90 91 57 D2 F8 A6 7A 2A DE 48 54 F3 61 42 C0
 85 58 D4 1A 01 5A 47 36 61 EB 16 23 BB 96 E5 24
 8E B7 AD 99 F6 2F C1 27 6B CE 02 ED 21 D7 B5 EC
 36 94 63 1D 22 34 02 74 44 47 DA 38 E1 ED 89 12
 64 7E 3B 43 40 84 72 7A C6 7D 38 24 48 35 49 11
 B2 AA FC 1A A5 37 BF 83 87 72 8D C0 C2 EF 83 22
 3B 85 BA 04 1E 68 DF BD 79 E1 9C 9B 15 AA 86 3C
 B1 D9 85 FB 5B 2A 61 5B 7B 09 9A 2F 1A D2 39 2E
 40 33 00 31 C5 BB 55 57 95 F5 2C 1B 7D B7 3C 79
 5F F9 8A F3 09 26 88 58 A3 25 E0 8E BB 20 E4 29
 77 E0 FB F9 BC 70 9A EE 9F 29 26 74 B9 3A B7 63
 F4 79 60 B6 1A A4 84 FE C1 70 73 DE 35 16 E3 B5
 F6 D2 C0 17 26 D6 5F FB 27 D2 5C 46 E2 92 E4 5D
 AA 2A C5 21 83 7B B2 48 E6 CE DF 1A B0 38 05 3E
 95 9A 56 BE 97 AC 4C 8F 25 B3 D9 AC E1 3A BC 15
 BA B1 92 64 6A 7A BA A6 FB C7 AF 93 3B 86 73 6D
 EB 75 5F B3 37 FA A2 BC D3 50 B1 B7 1F C9 76 DB
 F2 80 4A 12 4E F0 1C 08 18 B2 D0 2C CB C0 5A 1D
 DF 44 9F E0 C4 12 71 A7 1E 72 9C BC 6E 38 B1 5C
 F4 33 AE 1B 38 DB DE F9 E3 7F 4F E3 0B CA D9 53
 1E 96 93 F5 EC AC 8B FB 7E 9F 91 BB A9 7D 5F C9
 B5 03 A1 C7 71 F2 85 1E 53 06 19 47 CE 8D BC 18
 54 64 7B DA 60 F8 12 AF F4 1E C5 9B B9 10 31 6D
 02 FF 7B E6 C0 19 31 A3 B9 53 23 49 8D F1 E4 07
 F3 58 2B 8A 1A D2 BC AC 57 CE 27 F7 60 DD 45 B0
 79 CE 40 0B D0 BB C7 E2 8E AE 46 82 44 9F BF F3
 AE 63 B9 4A A5 E9 9B 38 72 31 54 2A D4 0B 1F E7
 48 46 F8 71 B2 B2 3A 40 53 66 86 80 B8 C8 27 DE
 20 62 4C 01 2C 72 44 93 0C 7B 61 96 79 8C A7 E5
 DD 0E 1A 01 D4 D6 B0 2E 5C 3D 44 BE 25 E4 D4 D0
 FD 11 F5 77 27 9E 54 98 E5 E1 52 F4 E6 85 65 7B
 7E D8 37 34 32 F6 BF 2C 39 78 7F 9C 60 64 C7 64
 67 9D 09 51 BA 1D B7 19 DE E6 1C 3E 7A 7F 28 73
 A0 50 6B 3E 33 4F 55 EA E1 C7 6E 0E 4F 6B 5F 79
 25 C7 C2 4E EC FE 2B 24 FB C5 26 5F AF 37 6A 65
 07 86 F8 A6 58 5B 2A AF 5F B7 9F 5D E4 E8 48 6F
 FD 0B 6E 97 B3 61 1D 69 B3 BB 55 6C C9 B9 0E 48
 C5 11 D7 28 BE 66 AD 2A 6A 33 FE 71 DC 6D 59 9C
 1D 6A 39 4C BA 18 19 AE C0 5E D9 95 6A 26 EA 89
 CB 68 39 00 2A 16 1F 65 D8 83 09 1E A5 78 31 97
 C3 8E E3 A6 0C F1 4A F3 D2 D1 AF CA F4 27 31 00
 EE B7 D5 98 CA 5F 87 5E E2 65 34 7D 4A 48 F8 24
 67 C2 A3 FB 4B 77 1B DB AA F2 4E 25 CA 4E 6D BA
 EC 46 97 84 12 56 9A 28 B7 CC E6 F6 8C 10 8E EE
 23 4D 5B 34 AE 98 7E E7 DC 6B F4 D3 C7 AA 56 04
 47 2B 57 D7 F1 87 37 A2 B6 70 62 03 4F A8 7D 16
 EB CE DD 83 AA 5C 7C CD C9 C1 E2 97 56 D5 43 B6
 B2 1A 12 05 AB 31 C3 20 08 20 20 56 6C 2D D4 90
 5A D8 F3 14 FE 96 5F 2D 5D B6 BF ED B7 E4 B7 B8
 09 03 89 A1 52 9E 36 56 71 2F 53 3C 82 01 21 0B
 63 A9 9A 4E 13 98 7C 72 01 12 64 FB 2F 0E 69 04
 AC B0 94 C2 F2 73 C0 20 C4 B3 DF 09 2C 75 87 B4
 1D 82 21 5E 3F 7C AA 3A B4 E0 B4 B5 8F F3 9A A0
 95 03 41 14 E1 3C E7 6F 7B 8C 18 9B 4C 17 FA 09
 64 6B 03 30 21 ED 9D 9D 23 E3 CE 5F 3E 00 25 4D
 E3 56 CB BA 9A F6 AD DC 8E 4A 71 3F 0E E0 45 D5
 A3 A6 95 0C 36 E0 16 79 56 05 10 DE C2 46 8F 3A
 B8 00 8E E3 61 C6 02 B4 55 AD 4A 27 06 3F 77 B6
 17 28 61 9C 43 42 A9 CF FE C6 D6 2A B1 57 2D A6
 90 B3 FB 50 23 CD F3 8C 35 FC 59 42 A5 46 C3 0A
 85 D0 15 AE CF 3D 56 96 29 E1 5D 84 47 85 74 32
 26 F9 44 A9 B2 2A 0F E6 05 EF 70 E7 68 E9 B3 CE
 53 58 2F A4 2F 26 20 0D C5 59 CE 66 9C 49 9B 23
 34 A9 45 D3 B8 F3 81 86 57 4A 95 D7 4F 06 BA 5A
 10 B0 E8 F7 A2 10 54 AC 00 65 B1 45 5C 0A 5F 5E
 93 97 E6 82 6A 5A D2 AD C2 DB AE 79 54 A9 BA 1C
 75 60 BE 01 21 F6 69 09 D3 CC FF 7D 38 B8 66 6A
 F8 11 25 C1 AA BB 20 3B 4B CF 06 AA 1A 08 6C A8
 CF 7F A9 FF 7E D0 12 B6 AE 7B 76 A6 5F 73 D0 D0
 30 6B 9A F5 9C 77 20 3F 79 FB 71 F4 9C 88 E8 EE
 CB B3 5E A9 42 A8 61 82 6F 41 D1 B3 25 09 6D D4
 2B C7 2D 3C 4E 7C 8C 9E BD 40 3F C6 01 EB B7 99
 4A AE 5E FB 7A 44 6C 80 93 8A 37 05 4A 46 CD E5
 BA 42 4C 0A 0D 2F 1A AC 93 54 AF 69 FB 8F F5 2C
 1D 88 AA 77 A9 EA 49 B1 6A 4F D5 2B 02 23 C9 0B
 22 AC B1 91 F1 62 CA DF 91 31 58 C8 67 3D BA 51
 0E 6E C1 7F 42 CE 96 3F 7F 27 F2 24 4F 7B EB C0
 75 0D 5C 7F B1 42 27 21 B1 89 02 4A 97 39 61 2E
 25 0B ED A1 5D D0 DE 68 4D FC AE 4B 63 F8 E1 9A
 1E C5 11 22 28 87 57 8B 33 B1 81 CC C2 8C EE 44
 51 6E 49 B7 7C 53 6A B9 E8 AC C1 D7 AC 74 EA 0A
 CC 90 0E D7 0C 08 04 BC 4D FD BC CA F2 3C E5 35
 50 C3 0E 8E 88 F2 6D F2 C1 24 13 DD 68 8D E9 5A
 DD 87 CB 2F 30 BC B1 FB E3 BD DE D4 BB 2B D0 D7
 8A A1 D0 79 0F 48 C9 2C 1C 93 C5 00 74 D4 29 6B
 18 C1 F2 E6 3E 8C E1 93 C7 FA 1F B8 61 EF 97 C1
 77 A4 8E D2 C2 70 44 23 46 DD 37 FD 84 21 80 66
 92 19 9C 16 FB BF A4 2F EE 6A 82 BA B3 92 01 FF
 E1 A7 48 2B 28 17 FC 3D 95 F5 D7 B4 88 BE DE F9
 29 B3 E3 69 DE 72 82 0D 10 E6 F8 B0 AC AE F0 3C
 28 90 5F 38 D9 A8 F7 D7 C2 96 33 74 26 53 56 6C
 B4 B7 2C C7 CF 7D 07 AF 0D FD E4 DC EC 86 8C 1D
 5B 48 42 DA F1 35 B4 B2 9A F5 9B 1C 6E E9 3B 57
 F2 96 4A CD AE C3 A5 AA D8 9C 4A 53 BA B2 3D A1
 0D D7 4C 3D D1 AB 0B AB 86 81 A4 A1 7E 00 67 03
 F6 26 7C 82 C6 15 36 8D 66 49 4B 73 2B 5A 31 A5
 A6 32 B2 21 42 39 A6 7A 6E 65 E7 E9 31 A9 CE 57
 0B 7E 8B 83 7E 65 B7 B9 92 1A A1 44 03 BD 36 4E
 F1 CF 56 98 3C F6 75 E0 D5 B8 F9 55 F9 D1 AE 91
 9E 76 BD 29 58 08 05 0F DE 2A 9B 56 B7 30 96 8C
 AA 05 6D 12 AF 45 E8 A8 EC 2A 09 91 06 08 72 01
 B7 8D 8B 65 F7 50 B0 C2 FD 53 E4 C0 74 56 6D C1
 71 20 BB C9 86 1A 46 3D 8E CC 8B 44 C3 8B 43 5C
 BF 01 22 86 89 79 EA D3 CE 2A 88 CF E4 57 7A 73
 7E EA EF FB 89 A6 B5 B9 B1 D0 E1 9D 16 7D 9B F7
 B8 B6 EC B1 A4 0D ED B4 B8 2C D2 6A BE 9A A7 FD
 B6 09 D8 C0 D3 B4 48 3D 08 FF 25 17 EB CB A7 E9
 51 82 B6 FB BE 92 6D 68 FB 5B FE E9 8E DC 50 72
 00 CF 9F 7B E0 B0 9F 01 A8 F7 8F A7 DC 54 18 91
 D3 42 40 B9 B6 43 13 2B FA 46 74 F5 C1 3B 36 04
 FA 8B 66 10 F7 E2 52 4A 7F EF E9 0B 3E F5 C9 6D
 11 11 E6 35 A9 72 BC 0C 02 68 32 1B 4D B4 54 19
 50 6E E0 11 C0 4E 11 09
* End 3166238607 1243055202