* LTspice Encrypted File
* 
* This encrypted file has been supplied by a 3rd
* party vendor that does not wish to publicize
* the technology used to implement this library.
* 
* Permission is granted to use this file for
* simulations but not to reverse engineer its
* contents.
* 
* Begin:
 53 03 74 E2 92 06 89 54 63 25 43 A7 F3 08 B7 E7
 F5 F0 F7 A2 FB 46 1C CD B1 10 5F 11 0D 78 56 BC
 2D AD 63 14 0A 3F 22 A7 54 55 8E 09 9E 7F 18 E5
 56 BE E4 23 46 55 AA 4A ED 96 E4 42 01 F9 09 29
 62 AE 43 12 3A 77 F4 6F 6E EE BA EC 7C 31 05 13
 6B 51 13 13 EF 60 27 C7 1B 44 89 16 7A CB 43 51
 FA 33 9D 0F 08 E5 AF EC 65 81 08 6C 10 13 CE 52
 C0 81 AB 24 1D 2C 70 71 B0 AC C0 2F DA 5E 0A 09
 B1 45 08 50 84 65 F1 4D 20 81 1E 4A 80 BD 77 A3
 2B C9 58 A9 38 55 8B 8D A8 40 EA 15 59 9B BB 77
 F9 AD 12 B9 F4 22 58 EB C1 D2 91 8D DE 81 D3 7A
 10 EC 4E C9 6A CD 27 10 65 A7 BA BA 54 98 C2 D4
 B7 77 78 3F 78 A7 89 04 E3 9F 60 00 97 04 79 99
 11 7D F1 2F E4 BC 40 DB 12 C3 46 0F 71 24 FA 50
 AA CE 80 70 2D 1E AF 9A A4 FE EA A8 18 70 BE B2
 E7 A1 E7 8F B8 A5 CC E4 EE DD 3F 8D F3 E3 22 A3
 4C 5A 48 1C BC 06 86 57 7A D8 31 8E 24 72 4B 0D
 A1 B3 3B 3E 2F E3 AE A8 C8 83 37 D8 A4 7C 17 BB
 D2 4D 93 7E 8F FE CA 95 A8 93 DF 69 7F DB 22 0F
 5D 05 40 DB 45 2E BE 49 14 52 3D 33 B6 A3 9D D9
 40 C5 2E E1 C7 5D FA 92 80 89 05 48 55 23 BF 7F
 99 1C 86 E2 32 F6 1F 15 73 2A 34 2E 67 CF 74 79
 12 1F 28 D0 E3 CA 92 B8 84 E5 55 3B 3B 81 26 AA
 55 BB 48 6B EF 73 8F 80 A7 07 9C 4E F2 2D 24 EA
 D5 68 08 0D 27 9F 34 F2 F7 FF A6 13 EF 23 50 CE
 1E 12 E6 F0 36 94 6F 90 22 4D 18 D8 A5 B7 D1 B9
 DF 4C 90 20 95 47 E6 91 B2 2D 90 4C 9A D2 6A EE
 31 A9 54 09 CC 0A 25 AD 8B 46 47 36 E3 1C 11 11
 52 DA 43 14 FF BD 14 25 DC DE 8D 02 50 BC 6A 32
 03 48 22 7F B7 CC 49 73 23 50 A8 4A 3B 29 27 5E
 1B DF FC 23 FD 76 11 E2 62 37 8E 3F E7 F0 E5 AE
 B7 32 1E 4E 9B 34 8B E2 B1 A4 81 73 27 B2 56 F3
 35 67 37 55 DE 8C A7 26 AC D2 C0 BD 04 49 B9 20
 61 E4 D7 53 98 5E 74 9E A0 5C CD 43 0E 66 D0 86
 44 2F D4 1B EC 77 D5 FC F4 D7 57 A1 CB E2 34 8C
 FD 8E B3 8F 4F 0D D6 F4 53 D8 87 BB C7 40 4B 54
 D5 F4 A7 72 58 24 1A E4 93 88 FB 22 2A 5C C1 79
 F5 AD EE 25 1C 1F 47 E5 C1 CC 4C 0F C5 D8 D0 0C
 1C 68 FA D9 53 E3 84 F2 45 20 59 2C D9 F8 6C BD
 9A 43 E3 11 2B AF D2 EC 51 0E 31 07 B7 1C CF B9
 20 CB 0B 5F 74 45 A2 8A FF 2A E5 8F 29 C7 DC EA
 25 AF 6A 7F 1C 3D 29 BE 1C 20 C7 03 7A 0F 21 58
 87 8C 04 FB 1D 56 A5 25 70 C5 23 52 16 A4 BC F4
 B7 D1 C1 C3 F9 41 AF 52 D4 8E C2 CE 28 A1 39 7B
 36 E6 89 2E E5 06 30 5F 6F F0 15 63 B7 20 E7 6D
 4F C3 59 5B 05 55 2B 20 E8 F4 C3 0E 2D 28 84 D3
 F5 2F 23 C7 6A 5D 53 E1 BB B1 51 C6 19 89 B4 D0
 C4 B3 9D 6B A2 C8 C9 33 EA 8F 6C 4A 3B 43 58 1E
 3F 64 41 A9 4F 90 E3 C2 21 7A AD FE EF 8F 1E 07
 BE 46 FF EB 63 78 F4 0D 7E 27 25 22 0F 75 44 BF
 73 3D E6 07 F8 EE F1 A7 97 18 0C 2E 34 90 9A 1C
 03 5B 52 E3 38 4F 12 39 63 EB BB AA 71 03 4B 71
 36 03 FF 36 DF 5A D8 E2 59 1C C4 75 B6 4C F4 1D
 08 E4 64 FE B6 40 1A 2A 02 5F 6A DC D5 5A 52 8B
 28 42 F0 7B 44 72 78 67 E9 FC B5 47 E7 76 AB CC
 1E 83 4B 8D 22 12 78 AE FF 73 8C A4 9B 42 E5 C4
 50 F0 19 61 57 0B A9 8A F3 A6 1F A0 5F 23 A8 49
 58 46 D3 7C 5A 7A D0 8A 17 5A 57 AC 67 3A 5B 0C
 36 02 F0 34 82 87 C3 D3 FE 87 21 AE 55 CE 9F C2
 77 9C C8 06 4F 58 93 38 05 04 AF 3C F1 F8 93 BD
 BB EF 77 09 34 67 A0 5D 6E E0 F4 53 BA 74 2B D5
 77 A0 D2 17 CF 61 34 9B D9 C3 D0 C9 E4 C1 41 56
 6D 09 91 EA C1 67 E1 31 6F B4 B4 2E 42 24 50 DC
 AA 85 54 0A 7D C2 8C 0A 2F 9A 26 87 B4 7B EF F5
 E5 13 35 92 F9 40 FC 5B F7 D5 61 33 AF 41 F1 23
 A1 59 96 15 05 87 E2 D3 38 10 9F 90 6A 37 7A EA
 8B 36 2D D4 99 6B 1E 4E BF AC 9B 8F 0B 43 F3 7B
 5E 20 C0 3C 64 19 87 A7 95 48 F3 80 69 51 96 81
 34 E6 A6 60 B0 EA EE 70 B4 B5 E0 07 33 AD 12 3D
 F0 DE 18 CA C6 B9 AC 62 D0 19 FD 5B FC 51 70 1F
 A5 CE 93 AE B3 14 43 4E 66 FA CE 1D F3 A1 6B 3B
 89 84 88 D4 D2 93 33 D0 AA 91 70 C6 ED 36 6A 44
 72 8C A7 DA B8 D6 22 F4 CF 28 C9 62 8B E6 96 65
 3F 0C 58 CE FA A7 18 82 3D BF 33 D1 6C 85 1E D9
 E6 46 38 91 81 7F 1A 61 31 88 DD 63 54 D5 A7 8C
 B1 FD BB 71 6B 9B 02 16 FA 9B 9E F9 FB 6F 59 7C
 1E 0D 2A F0 C6 2D 96 6C 1D C1 AC FD 74 37 7E F3
 96 A2 36 04 7A 7F 5B 4E 58 5C 6F 0C 77 0E FE F2
 3D AE 6D 53 37 5F 9A 8D BC 1A DA CE 1D E4 AD 47
 45 52 74 A8 6B 96 80 BE 5E 70 4C E7 82 15 BA AF
 96 96 05 83 0B 84 90 DC BE 50 41 19 9E 9A 1A 35
 DC 0F E9 A5 29 84 95 6E B7 B4 67 EB 45 CA A9 96
 41 52 A7 D4 40 7D 0A 4F C3 2D 2F AD B6 1C 22 B7
 AA 30 EC C7 5B 12 CB FE 25 AC 61 46 A6 15 94 D5
 6F 1E 27 A3 BB 57 57 D2 37 82 9B BD E0 95 B7 56
 D9 52 44 DC 59 DA 3D D8 FF 60 E1 16 1C 5A 18 D8
 27 E4 03 7F D1 E1 10 4B 60 4D A5 AA 8E 9B E8 3F
 21 5D 2F 99 C4 14 04 42 80 8E CB 72 93 54 87 0F
 3F 26 77 98 12 96 01 E7 8D A7 D6 A5 E1 E0 03 13
 F7 D1 02 DF 27 D6 88 C3 AB 1C F4 69 49 92 92 57
 9C F1 A9 F9 6C 05 86 71 B6 DB 7E D1 95 FF D2 0B
 95 F8 0F 03 A3 1B 19 1D EC 6E 1C 70 93 E1 A0 48
 91 32 BC E0 34 8A 93 D5 0E FB 86 44 7F 87 F2 07
 FA 85 8E 27 9D 6E 4B 46 E6 E3 54 26 BC 1D 3D A9
 E0 0E C9 59 0D 49 C2 63 38 D5 CF 0D 34 FF 9E 35
 9A 46 79 0C DB 6F DD 21 5B 39 EF E3 E5 25 CE EE
 06 BD 70 9E 52 99 2A D5 3A A4 E2 0A 61 04 ED 8C
 E6 FD BC D8 AD 5D 16 A5 F0 C7 75 8C FD F4 AB 46
 3D 6F 8F 40 46 4B A2 E0 D3 EA 5A FE 64 FB A8 1B
 6C D5 D7 46 DA 7F E7 C2 EA 95 65 7E 79 4A DF 3B
 21 39 6F 5D 95 E4 D3 BB 96 3A 74 D8 FF 8A 01 3E
 E7 F9 CB 58 3B 44 1A 2A 15 4A 29 A4 50 9C AC 4C
 4B CA 91 93 25 DF 67 10 64 CB FF D0 77 D1 87 D7
 68 30 83 BA 36 74 80 D2 F8 32 FA 5B DB 8D 2E 07
 18 6B E8 80 75 96 9B 13 14 04 B7 79 BE 84 BE 82
 7F 93 8B DB AF 80 8E 70 C6 12 13 D6 72 44 DD 06
 AB 16 0F 85 7A 72 DD 54 8C BF D1 F1 01 9E EB AE
 37 D1 63 3F 1F 71 82 E5 8E 5D 71 AE C5 E2 34 53
 AA 7A DD F3 57 72 04 CA 30 6B B8 E7 A0 EF 1E B5
 0C 84 88 56 1B E7 1A C2 5C 59 EA A3 E3 45 99 B5
 F9 32 63 01 CA 97 B4 0E CB B7 5A E5 86 0A 5F 1C
 CF BC B7 73 5F E8 91 19 0E 97 FA 60 28 1F 84 F5
 5D 94 79 73 65 E5 7C 9C F6 A4 1A 52 9A 20 20 83
 0C F5 9F FF 03 04 2D 63 5A 39 56 95 D6 DF C5 57
 12 22 8C 46 85 EB FD 46 F3 24 DF 25 E4 DD 82 20
 6B 7C F7 8E 7A 9A F2 DA 72 1F 05 87 B6 FC 1E DA
 FD E2 D4 7F EF CD D0 27 7D 01 59 09 E0 B2 94 AB
 D7 16 F0 CA B6 FF 5D 3B E6 9E 4B 84 E7 52 AB 7B
 D4 6C D6 30 38 25 A2 39 5B 92 85 2A 51 4E 54 B1
 5B A7 3A 13 A1 4D BC 14 82 B6 EB 44 3A 58 33 87
 DF 94 EC 59 8C 9E 4A 4E 73 6E 94 5B 1E DC 73 C0
 8C 82 D4 FA B8 69 72 68 FB 4A 4E 2E A7 72 BE DE
 DF E9 72 3B 75 65 10 44 12 04 96 17 6D 1C 87 0C
 43 00 D9 6B BF B7 C7 8A 02 FD 80 BD 11 10 7F 22
 5F 47 43 23 5D E5 EA 83 66 47 27 58 18 2A DA 04
 DD 67 E7 AC FB C8 02 E8 5F EF 24 5C 67 85 0A 14
 C7 61 39 AC 0D B2 B7 EA 72 83 8B BC 0B 53 36 83
 E9 11 E6 93 31 F0 9D B7 5C 81 92 52 DF 77 9F 72
 08 8F 0A AA 81 A2 F8 4C DC 84 EB 96 E6 87 AD BA
 49 96 C3 84 7C 56 BF 43 28 8D 79 D1 7B 21 F8 8C
 F2 3A 8F E0 E8 9B C6 C3 EA A7 EB 1A 03 3D BC ED
 CC DD 42 6F BE 2E 7D DD BD 12 F4 F0 D2 46 73 D8
 BB 0C DC C5 C4 74 F8 30 2F 07 52 0E 16 E9 94 E9
 C9 02 3A 02 EF 55 29 64 F9 F5 1E 3A 31 C0 F5 09
 1F F1 12 6C 59 36 05 11 89 7A 3A C7 9F F5 41 7C
 A0 C5 2A C4 0A A4 76 5E D1 FF 79 06 63 C0 F2 9C
 AE CA DA F1 C6 3A 82 46 71 D7 7D 73 2F 0E 6E C8
 E3 38 FB 1D D3 2C 68 83 70 A7 66 63 B9 66 AE 1E
 0B 78 B7 28 03 FC 6E 2B 08 C7 49 61 2C DE 73 61
 11 23 59 5A C1 0B 4D C4 44 C0 76 D1 3E 0E 6E D1
 00 1E 16 C8 7B 3B C2 6E 7E D0 60 FD F9 B3 11 0B
 05 7E B9 9E 0C 7F 5E 05 B7 0B 24 B9 4F 20 A4 A2
 FB 0D 7A 2A 1C CF 9C 3E AA 33 92 FB A8 D3 F5 8A
 36 D0 80 C1 69 44 27 FC 0B F5 92 F9 DE 74 F4 60
 F0 D2 3C 40 E8 92 F2 DB EE 80 C1 17 9F BA 6A 1D
 D9 DE 00 EC C8 99 79 EC B0 F6 39 BD D2 8D 67 34
 79 A3 F9 F9 22 67 93 D4 42 7F 69 97 F8 0F 95 2C
 E1 59 31 38 E5 76 AE 07 C1 7C 35 85 FA 45 68 B5
 7F D9 EB 03 10 84 FF 7A 04 43 1F ED 5B C9 88 86
 56 48 95 90 3A 5E A4 BF 8C 9D 6B FE C9 C1 F9 1A
 ED C9 9D 96 0A 8C D6 43 E7 46 BC 35 42 C2 43 3C
 B0 77 0A 24 0F AE F0 25 FA 66 39 B3 B7 21 97 9F
 51 05 44 84 3D A5 2A F1 F2 B9 DF 26 2E C2 DA 9F
 89 94 9F 54 4F 3A CA 8D 9B 6E AC C3 B3 CE 7E 36
 11 7D 94 C8 F5 81 F0 91 C1 41 0B 68 CD 76 AB 6E
 76 E5 8F 71 77 49 52 59 0D 51 C5 09 A1 56 86 1C
 1E 54 92 5A 7E 66 A7 35 AA 24 7E BB C9 BA 04 FC
 A9 35 54 98 AE 4B 77 9E CA 88 74 38 B7 B1 97 3B
 02 9E 73 A4 90 8F 6A F8 AD 7C 5A EA 4F 2A 02 A5
 53 DA 41 C9 5C 7D 02 7F A0 CE EB F8 B9 31 3F 72
 7B E6 1D 25 F6 08 26 26 4E 2A 4F 7D 06 53 41 99
 5D AB 75 5B CE 8A D9 A0 E7 22 DA 1E 01 D1 90 C4
 92 71 53 54 97 37 87 ED 5F CC 4E 63 54 65 93 C0
 80 5C FC 30 9F FE B8 4F FA 06 02 CD A6 48 CD 1E
 46 76 17 04 52 14 0B 92 EA 9E 8C 9F 78 EB 82 E9
 0C 23 76 F4 DF E4 41 8C A2 56 B0 B3 3D B9 DB 18
 97 17 25 F4 3A F4 B3 D3 29 67 D1 3D A1 E8 44 18
 09 32 1A E8 15 27 6F D4 A0 3F EB 58 10 8F 4B 6E
 DB 97 7A B8 F9 D0 7F 7A 65 B9 32 69 82 A1 37 CF
 F8 69 7D CB 00 E8 8E 77 41 AF C4 D9 2D CE 8C 4C
 06 EE A6 42 CD C1 CB A2 AF 76 2A 13 4B B4 BA 93
 19 16 49 5B 0A B0 D6 F5 49 8C EB 47 9C 24 07 CD
 64 01 6A 56 44 A4 1F 3E 15 F0 A2 44 72 B8 29 07
 79 A3 71 FE B5 C5 CD 07 7D 8D 46 E2 FD 3F 54 EE
 23 F3 E5 AA 95 9E 9E 3B D6 39 D1 B1 8A 28 38 21
 EA 22 DC C8 BE 1F 19 3A AE EF ED DD D8 FD 49 AD
 24 F8 C6 F2 9E 77 80 EF 9E 19 7F CD BC 66 5E A6
 42 7C DD D3 8A 12 F5 30 42 99 6C 00 30 48 65 43
 77 64 BA 95 BB 26 4C FF 57 C1 9A 1C 74 B0 D9 18
 E2 88 E3 8B 2D 20 9C DA 46 32 29 DA 30 9B 76 22
 1E 55 20 72 36 01 65 E0 F8 47 4B F6 40 A5 B5 A9
 06 5C A6 2A 9A 7A 8E B9 76 8B 5A DB 0D 95 9A 80
 CB 98 BF 57 88 3A CA EF B3 19 57 BD 3F 54 55 73
 75 CB 6B D6 08 92 61 CF 1E C6 60 66 FC 67 18 52
 C6 CC 82 A3 B4 F5 6C FB 4C CB 67 58 5B AC 1E 2E
 72 A2 03 3E 82 6F 5C C1 F0 89 C0 49 69 A5 C6 B9
 68 C7 E2 94 13 F8 F2 D0 7B 4D EE E7 5B FB 23 F5
 D7 7F 68 54 8D 3C 2C 59 AC 34 9B 11 FC 99 75 AD
 05 8E 86 FA 33 82 16 B1 F1 2B C1 66 4E 0C 69 C2
 84 19 3D 51 B9 54 19 89 5F 26 A5 72 80 2F 46 BC
 E6 5D 3B 76 D8 33 3F F2 0E 30 A8 29 24 C5 38 FF
 00 C4 8B 43 88 79 C9 71 DE 9A AC 16 71 3D 9C 09
 10 A3 BD D4 CB 4F 68 47 C0 8E 4A E3 56 8F EA B2
 66 7F 56 E2 63 06 34 2A BA 8C E7 B1 19 93 8E 05
 F8 00 EF 2C 70 12 6E 47 B8 98 FF 28 51 6C 01 51
 41 80 5A 1F 46 AF 05 D0 67 F0 F2 1F 0B B3 DA 6C
 EA BF A8 B1 82 7D E3 91 D7 B7 76 9B 65 F4 EC C0
 D0 31 63 84 B8 C5 8C 83 69 5B 09 68 ED 97 40 95
 B2 37 EA 9E 7F AE 31 22 C3 8F 0F E6 D4 5B 0D 97
 24 C7 6D 72 E5 83 18 AA F5 71 D2 20 FE A5 26 A6
 7F 1A DE 3A 60 9D AD D2 7E 3E E7 27 A6 6A 01 EC
 81 AD 47 69 AC 2C 32 82 FD 77 0E 19 DE B1 D5 54
 CD 36 ED 8F 7D F6 9C DC 29 30 A8 22 1D 84 93 D2
 5E D9 64 1C E5 A3 0B E9 54 8F D8 13 31 A6 06 B6
 4A C3 B3 23 17 0D 1F 9D 86 A8 1F 33 95 10 00 63
 5B F1 20 BB B2 1B FB 1A 2F 8B 5A FE 87 77 B1 D3
 8C 50 D1 2E 2B E4 6A 65 FF 7B 5B 2B A3 5D 64 E4
 50 E4 B5 65 99 EA FE 67 39 11 BB FC C1 2B 93 7C
 B8 0D CA 2E 11 13 08 F2 35 68 05 3C FF 6C 52 1C
 50 46 2A 90 91 E8 E5 99 5C 1E ED 38 22 CC C8 1F
 78 C6 AF F2 B0 ED 73 27 6D 24 19 D4 76 04 85 22
 F3 BB 94 BA 76 5B E4 6F A0 78 70 58 19 CA C2 90
 C8 5E 09 76 0E 78 55 06 59 07 72 34 5E A1 AB 2D
 15 AA BD 5E CC E7 0C D9 E4 7A DA 80 AD B2 6B 0E
 EA 0E 3C A7 B6 D7 88 DD 09 E0 AA 8F A7 B9 48 7D
 5F B5 D5 71 BC EE A8 9D 60 B9 BF 41 C1 5E F5 12
 8E 14 9A C0 26 4A 99 6C D0 9A B3 D1 ED 03 1D 6D
 F0 59 D7 84 A2 46 27 16 AD EB 8D 8D BA 0A B2 5F
 82 6C 10 93 4E 02 DC 92 04 A7 95 AF 9C E9 F6 57
 E4 84 A9 67 2B FF B3 7D A2 94 D9 9A F9 53 15 28
 92 55 A4 95 1E F4 A0 63 E1 DE 58 78 D0 65 B0 43
 36 53 43 F0 09 A0 E5 5A 3F 16 2F B5 D8 3D CF 7D
 44 BF CC 14 FB B3 E0 0A BD 33 C9 9E 90 7B 28 CB
 CF BA 6F 22 53 AE C2 D9 FE E2 87 10 EA C6 20 F3
 73 16 A1 81 C5 9A 89 DD 00 C7 81 EB F4 02 D9 AB
 38 5D 60 51 12 0F 90 C7 16 11 B9 37 C2 74 80 58
 B9 BE 0A DB 75 9E 55 3A 71 3D 67 15 08 0E 7C AA
 3B 27 4F 4A 73 DE D2 CD 7D BD 99 22 14 E0 36 6E
 A3 70 0C 63 B3 F7 1E B9 69 97 B2 D1 85 1C E4 C3
 97 1F 52 5A 07 28 C9 1A 42 E2 F4 C5 D1 68 B2 BD
 76 41 22 4D 5B 8C AF 34 C7 66 20 DD 75 A8 76 80
 09 E6 86 19 E8 B1 CD 9E A9 98 A0 A0 C6 61 12 42
 08 D9 63 DC 4F 54 05 02 ED B2 62 86 76 26 02 1E
 9D 19 B2 2E 0B 6D 22 00 B7 0B 87 07 10 E8 F8 85
 C3 7F 32 98 62 FB 3E 5D 31 EF 5D 83 73 6C 7F 04
 CF 7B 4B F3 85 A5 95 01 05 06 C9 CB E2 56 93 2A
 97 64 47 9D 4F 24 EE D0 E5 CB E8 AF 03 BF C6 52
 73 DD 43 8D E2 BC CA 31 1E 8A F2 36 84 03 92 2D
 72 44 0B 44 1D 0B 6C 89 19 DD 25 71 B6 2C C9 45
 7B 5A 40 34 F8 6C 74 57 63 89 01 CD 3F AD 87 F7
 EA 40 7C 02 B7 26 92 3F EE B6 E5 4B BD 4E 29 50
 A7 A0 02 BC 57 6D 8D 32 D3 DE 5E 9C 3E 5B E2 09
 E7 A4 BB 25 44 B3 3C 70 A0 E1 28 3A FE 36 49 32
 36 C4 8A 57 3B 85 2F 42 F1 81 62 D5 01 42 BA 53
 A5 94 9E 5A E0 95 69 0A FD 11 76 62 22 97 15 95
 E9 4A D9 C5 E1 9C 99 5B 81 CA A6 CF 40 CD D4 37
 E3 C3 21 AD 9D 12 34 8D B5 AA A6 57 4B 4C 3F DE
 48 50 91 3C 11 AB E7 0E D3 00 BF D7 7D 2F FF 00
 1F 33 F4 43 A5 56 05 60 53 67 5B AE 36 E1 A4 AC
 06 84 FE 92 32 47 FD 8C 2C F0 D0 1A F6 7E FC A1
 F7 20 9D E9 2D 08 18 9F BB 99 B6 AA 9C 25 32 E7
 C0 B6 AA 69 7E C1 D6 57 80 4F 34 B5 96 D9 A2 10
 32 BF 57 34 3F 0A 59 3D C2 7F 33 B9 75 E1 50 E7
 1D 30 A6 61 FA 9B D7 6A 2A CD 40 DD 25 A6 86 4E
 E5 96 D0 4F 2B 1F 73 7C C9 38 F8 06 97 99 75 3E
 EF 24 B6 37 0B 46 99 30 8B C0 AB 19 85 57 24 26
 1E 1D 8F F1 53 82 45 18 58 74 F6 F1 51 BD 3F F2
 67 0C FC 29 DF 76 CA 8B 38 29 E0 CD 6D 8D 78 D2
 63 4E 0C B4 66 8C AB ED 04 B0 68 4B BA FE D3 F3
 BA 01 17 46 C8 30 DA 16 FA 16 C1 DA F0 FA 75 9E
 B6 82 1C 7C 8E 4D 52 F5 18 D9 7C 15 12 D7 54 AF
 D5 53 DB 4A 94 34 F9 F6 2F B1 61 BD B0 B7 06 27
 FC 8C F8 9F 12 24 E9 5E 57 43 EE 5F ED DF B2 FD
 1D C4 B8 85 CD 69 78 53 80 D6 46 A2 B8 6C D1 71
 97 F2 7D BC CB E6 9C C6 25 87 D6 EC 38 F1 BC 2F
 A3 45 63 61 94 B8 16 12 3B 1F CF EA F7 BC B1 3C
 76 3D F8 22 2C 89 0A 56 C9 00 17 3B 0E B2 57 A4
 A8 F7 7C 74 3E 31 09 35 A6 65 8E F7 2E BC A1 70
 E8 55 F7 36 F9 33 A7 AC 42 15 72 00 48 DF 55 D5
 F3 32 28 74 10 6F 89 75 5D 8C 6E A1 B7 CF 50 46
 A5 DF 6D FF BE 6E 44 01 DB 42 8D 00 CD F9 F6 FD
 74 A2 0A 60 BA FB 8D 01 F1 F5 50 65 F4 F2 3E 3F
 69 E7 56 5B CD 46 F4 3C 3E 10 CF E9 5B A9 DF 17
 DC D6 B9 A2 8C 6F DE CA EE 49 7F 23 16 5A 1E 6C
 1C 52 5B 22 57 CB C9 4F AF D6 51 6B 62 70 1A 95
 85 97 04 D5 4C 3D FF 3B C6 D5 E9 96 86 B0 54 57
 61 03 AB BB AF 34 8D 54 BB C4 F4 52 0D 09 FB 01
 97 9D 37 5D 14 AA C9 96 30 9A 44 80 4D 33 66 DC
 29 A9 64 1F 7C A4 CE 93 56 F2 B4 8F 68 14 04 98
 CF 2F AF 9F AB 77 63 F7 AF 98 23 AA 16 79 E3 99
 27 7D 6D DD BB BF 03 A1 B2 BC C4 9F A4 72 C9 29
 27 39 6B 5B F9 68 46 C0 DD 03 8B 0A CF DC 18 B0
 16 55 EA 08 C6 08 D6 DE B2 05 B6 F7 26 64 FD E3
 A5 0F 25 D8 A6 CF A0 07 AF 7D 52 A3 12 E6 A0 77
 06 DE D3 D6 83 A9 4D 43 D3 A2 5F 4A 0B 70 17 04
 01 46 AF 82 2A 5F 46 71 87 B6 1B E1 79 8A 53 9E
 29 CE 7C FE BF AE A7 61 03 BA A4 D2 AD F0 E1 73
 39 91 C3 60 6C 5E 47 97 F2 68 F1 30 3F B6 2D 65
 86 1F 36 C3 9D AC 03 D4 0B 4B E1 7F 59 51 8A E7
 34 DA AC C6 F2 7E D0 29 61 B7 F2 F3 50 7C DA 4D
 53 CF 02 A0 6F 81 7B 72 47 07 3D B4 85 95 61 6D
 9C 1A F4 55 BF D7 5A 47 74 A0 24 39 0C B2 FB 8E
 34 75 9B 49 C9 6C 03 68 D9 CA BB 66 B5 23 EB F7
 13 8C F3 DB 40 5A C0 D2 E8 14 AB 02 D4 99 D7 A7
 6E B7 49 40 83 46 DF A7 72 AE EE 58 2F 99 26 2D
 8C F1 CC 34 37 AE AC 7D 01 F4 03 48 E5 13 A5 29
 EE 3E 1B 74 6C 0A 2E BA DD CD 2B 8E BC 01 5D 29
 B0 35 FF 2A 48 6F 69 8F D9 4F 70 9B DB C0 7B AC
 46 7E EB B1 A1 8F 02 92 CA DF 08 5F 91 DC 84 BB
 78 08 39 06 04 FB E6 1A 99 32 8A 98 B0 43 9C 4C
 AF 07 D3 F2 A6 40 B9 85 D3 6A C9 9D E0 01 90 B3
 4A A3 BE 2F B9 0E 3C 1F 86 FB 91 45 1D 3A E5 49
 1C 09 A7 00 EA F8 A6 F9 13 86 2B 9F EC 3E D5 4E
 1D EA 75 FF 61 F2 18 02 85 1A EA 91 C8 07 6A 10
 AB 4D DE F1 71 64 CE 7C 6D F7 0B 8C 1F 42 57 3B
 35 D8 9C 8A CD 5D 2B CE B1 20 A6 29 95 E4 CC 2B
 0E FF 80 F5 0C D8 9F F4 C0 63 C2 41 A4 8E 54 7C
 15 4F 9C 59 4F 41 D9 B2 9A 99 46 09 86 91 E3 6C
 FD A4 8E 1C 30 47 89 D0 79 30 5B D4 A7 42 71 B3
 68 8F 67 80 CE A4 FB D6 8A 71 70 94 DE 36 86 BE
 78 54 A9 D1 6D 8C A5 52 BA 32 78 4C 50 DA A7 AF
 B2 9A 13 7B 4E 7A 1C 90 4D 90 DC FF 11 C4 5C 4A
 19 79 6A 80 DE 7C 7D C6 B0 24 01 84 6E 0E 8E B9
 33 96 45 D4 2E 5F C5 41 2D 2F CB 0B 9B AF FE 75
 D7 3D 58 BC E4 41 1F 1D 52 E4 A3 F8 15 34 62 28
 0D 83 6B 3B 91 78 EF 24 6A 87 8D 62 D0 F8 62 59
 92 DC E3 D9 F0 15 09 5D 90 B3 C8 B2 7B 06 97 9E
 1D B6 49 1A CB 06 7F 68 71 56 88 36 3C 55 55 5F
 6E 04 05 58 45 2F 74 11 17 A4 5F 55 AD 11 47 E9
 85 52 05 51 A5 43 8E 3B 45 09 8C F2 E7 2B D3 B3
 BA A6 0A 2B 73 D6 52 5F F3 E8 F5 B1 A6 8B B1 45
 58 A8 94 40 DF 49 99 BD 29 B1 77 10 0E 80 55 AB
 4D 70 62 07 D0 36 C6 62 81 0C F6 12 63 33 82 EB
 7A 15 A4 9B 22 93 0C F0 8D A2 02 B0 29 31 D0 17
 5E 7E B6 EB 7D 23 74 B2 A2 3E A3 3D 69 89 F6 05
 52 61 33 11 18 65 56 9C 90 3E B5 CA DE D4 C4 B6
 30 AA AA 5A EE B0 BC 18 BC 00 C5 33 A6 00 40 45
 1D 1E 6D EE 83 7F 47 F7 9A FD F6 3B B7 E9 66 12
 39 9E 01 2C D2 DF A6 D6 AC 2D 3B 73 34 3B 09 86
 22 57 4D 7F 32 BF 35 1C 22 DB 52 B4 F4 4C 18 6B
 FF F7 FF 34 61 A0 B5 C0 41 37 B5 D8 35 04 CE 8C
 1C 23 CF 15 13 71 27 F8 E3 95 30 99 53 CD 19 8F
 91 29 7A 6F 18 8E 50 88 53 49 C8 B6 AD DB 2A E0
 96 FB 51 9E 52 60 86 0A 9F 34 EB BC 57 85 08 FB
 CD CA 27 F3 91 EA 1A BB AF 5A F8 A3 D1 0A A2 7D
 6D 60 10 D0 B3 29 D9 B9 40 A7 F9 6B AE D2 23 02
 2A 4F A6 32 EA 1A C1 C1 65 D3 4B A5 5B EE EC 41
 E8 05 B5 1B 4D F9 95 28 BD 9D AB 1B 5D DD 3F E2
 29 12 01 31 21 F3 86 91 88 E2 D4 61 4D 85 4D D5
 55 46 BD B1 A9 9E C9 52 73 1B 97 AE CA 95 62 36
 DB B6 4A AE D6 C2 AF 44 B3 A2 24 DB 9F 9A E4 DD
 91 F9 A6 F5 2B 5C D6 B1 2C 56 85 FA C0 62 AC 88
 DE A0 C2 46 7B 2D 76 B7 A4 BB 93 40 31 18 F0 FC
 FE C4 6E B1 A9 68 74 FC 61 E5 D9 12 E6 71 A8 C2
 9E 60 55 EB 91 C0 3D 9B 06 02 4A 9D 63 CD 33 8A
 63 0D A6 9E 17 9B 61 1D 3D F0 E0 60 61 18 E0 AF
 32 7D 32 06 D8 64 5D 49 37 CD 0F 67 26 4F B2 C3
 A1 63 F3 2F 57 EF D7 12 E8 FF C6 2A 6B 4E 51 89
 FE 29 16 B2 8F 36 98 83 33 8B 27 87 B1 3E BF 47
 6D EA F9 93 A9 A7 7C 48 60 CA 57 B1 20 B3 33 6C
 3E C8 F0 32 05 DA E9 31 77 21 2F D1 B2 A9 72 10
 3F C2 DC 8F 41 90 F3 BC BD 90 35 90 7A 6A 96 1F
 8A A0 E9 C5 E1 31 2B 2B 02 4E B6 3F C4 3C B5 BE
 11 40 C8 65 11 D6 3E DB E3 59 DE F3 93 98 0A 7E
 25 CB 33 68 6B 3B 46 98 CA 69 01 84 FD 86 A8 CC
 5F 60 10 E0 CC FD 19 68 0C C3 A5 AB 79 9E 74 E2
 2C 8F EA FB 01 62 D5 CB 0D 3F 23 3E 12 DE C2 EA
 02 6A 77 A9 C1 34 A4 D9 70 C1 23 2C 5C 17 2F A2
 40 4B 0F E7 5F FF E9 A8 43 08 13 D4 4B 73 03 69
 37 52 D2 3B 4C B7 7D EA 47 0E 72 42 59 A2 3A 98
 36 CA E7 47 5A 39 C2 7A 5F C0 C8 D3 42 C1 11 41
 27 F7 67 61 D6 BF 85 78 73 7D 32 E8 F3 89 59 36
 4D 58 5D F4 F3 44 21 A3 A9 E0 EF 77 49 56 B5 BB
 1C DC 30 BC 64 32 04 3E FA 16 82 6B B1 00 CB 0E
 AD 22 0C 0F BA 7D D3 13 75 73 02 AC 22 CB ED 68
 FF A5 CD 50 18 48 DB 9D 66 E4 70 33 B1 DB A8 1B
 5B 8C 64 56 A8 64 77 0A FC 5A 7E 87 A4 CE B4 F3
 EC 45 F1 F7 A1 0D EA 1D 58 B6 E5 94 4F 01 71 6E
 77 37 EE E4 DF B5 CC 7D 8A 39 41 A8 C0 91 A7 9A
 28 E4 B8 41 74 FA 8D 8C 34 78 6F 9F FE 0C 2D 6D
 65 05 8E 61 95 C8 26 60 C6 A9 46 E8 9C 17 2E 53
 1A B6 DB B2 98 2B D7 0A A7 64 CA 35 9F 94 B6 9A
 59 AF 97 F1 8A FC 96 91 38 71 59 16 1A 4F D8 9D
 61 34 30 AF 2B 22 3F C2 95 7B 6C E7 09 5B 96 0A
 DA DD 21 43 4F C2 B4 35 2C B3 11 A7 8D 06 50 19
 84 97 9D 68 68 DB 2F 93 A7 F1 80 8A 30 E2 F1 05
 DC 6C E3 8F 3B DB 16 DB 0B 8C 7F 45 ED 8C 24 2C
 62 A4 17 1A 8D E8 82 B7 85 CC D5 EF 26 5D 63 28
 35 73 73 6F E1 B1 17 F1 9B C5 02 8B 28 6F 89 50
 BF F7 59 C8 80 CA A8 78 4E 25 52 7D FA 24 4E 3B
 1B F1 4D E5 BA 2B D5 B9
* End 2262275405 3732920965