* LTspice Encrypted File
* 
* This encrypted file has been supplied by a 3rd
* party vendor that does not wish to publicize
* the technology used to implement this library.
* 
* Permission is granted to use this file for
* simulations but not to reverse engineer its
* contents.
* 
* Begin:
 1D 6D F4 5E 1E 82 8F F0 E2 83 47 B7 C3 87 5D A3
 2F 1D 71 28 80 AE 75 9F 6E 3E D7 2D 69 9F 00 B2
 15 19 FD E4 E9 E8 CF 91 61 12 C3 BC C3 01 D0 9D
 47 5A E3 C8 E9 E8 23 CE C3 6C 92 53 14 7D D2 51
 18 E4 B6 AA 17 0B E9 4B C8 96 65 FB BC 11 FA 4E
 37 B9 08 C6 A1 17 C1 20 69 32 A5 1A 92 3E D6 E5
 73 63 48 7C D4 0D C9 13 96 F7 E9 E4 4F EB 7E BF
 D7 F8 2A 5F 42 35 9A 8E 3B BC A9 A0 AB 69 33 B5
 A7 1F 37 6B 25 74 5A D7 CF EB CC 3D AF 75 38 9F
 4A 8D 4E 25 F2 42 D5 9D 5E E4 94 99 3D 53 BF 85
 CD 95 90 7C AA 52 BB 0C 58 3C 94 C4 3F 85 6F FC
 A4 8B 58 EB 18 DD 9A 84 DB 19 44 16 8E FF 02 A9
 4C CB 6B 72 B6 1A 20 BC 38 47 9D E2 51 83 E5 AC
 E8 F4 18 6F 62 0A 9E 37 5F F9 0A B3 FC 6F 5D 2D
 1E 77 9B 57 2D DC F8 C8 7D F1 69 3E BD 96 4A 1E
 D3 6E F8 FB 04 EF 7C 76 BA 3E 60 8C 8A 9E 8A AF
 12 04 64 11 83 70 87 D3 97 54 85 CE C6 0E 11 64
 B1 39 5A 36 6B B6 C1 45 5E DA AC B9 8A 49 16 F5
 0F 48 2E CD 91 D4 2A BE 0D D1 8D 31 97 00 14 AD
 E0 9D 7D D7 28 AC A6 4B 82 3A 82 D1 8B A9 5B 7C
 F4 A1 D2 78 9E C6 71 1E D8 34 2A 13 BE E3 85 96
 B7 1F 7C EB 32 54 56 7D 2B FA 45 46 35 47 9A 54
 6C D3 38 7D A1 69 48 B4 3B 04 7A 8E AD 81 6C 6E
 B5 23 EB CD B3 8C 16 28 6B 15 7F EC 5C FC 8A 62
 B9 F8 04 42 31 6E D6 CB 42 AD 13 11 B4 70 49 35
 15 E2 CD 58 BF 7F AF 19 A3 69 0C 29 AC 11 06 25
 D6 14 E3 62 83 F6 0B B3 59 D4 1E AE 8B C8 26 2B
 42 88 D5 B1 51 16 57 AE B8 43 D7 CA 0B FA D9 8B
 11 0C 29 EB BF 65 80 6C E0 5E 7A 26 CA 0C 5A C9
 A4 3F 9C 73 66 32 87 F8 B9 F7 25 98 D8 AE E2 E8
 14 97 E2 6D 13 37 99 6B 72 6A 78 C1 46 4C 3E EC
 D6 F5 65 10 98 13 0E 3D 85 A9 D9 7D 32 A9 6D D9
 74 84 EC B2 72 DF 6C CF 28 D6 9F 67 A9 A4 39 33
 1A 59 2B B7 0F 75 7A 54 80 B5 3D 02 7B 8F 79 29
 F8 B4 42 52 2E CC B9 A0 F4 7B 47 5F 94 F3 6F 6E
 2D DB 02 27 69 0F A1 27 6B 2E D5 3F D1 CD 87 92
 E0 7E D9 8F E0 B8 5E F6 08 48 79 05 BA 36 7F FF
 29 4E CA A2 03 CA DD 10 1C DF 22 EC 7F 2D 5A 65
 DA EA 9E 04 8C 5C C9 B2 3A D1 B0 DB 80 0C D5 6B
 13 DC A2 78 FC DC 2D 81 F2 EF FC CB 57 FE 5B 4A
 27 8F 83 31 EE 86 91 2D 81 71 8B 88 75 26 0F 66
 1C 71 A3 8D 84 5D 1F 20 74 22 44 2F 36 22 14 21
 5E 06 EB 8B BA 18 5E 7D B3 61 D8 1A 70 1A B9 91
 DB 85 5C A4 F5 3F 5F 2F AF 1A E0 C7 61 6E 3C 41
 42 15 4E 75 6A 33 12 6B 2D BA B5 60 9D 95 AF B6
 06 70 5F 9C EF CE 5A 5D BF A6 04 CB 8E 29 3A 75
 4F CA 16 FE 43 EC 39 7B 58 89 C7 0A 31 A6 FC 89
 94 78 01 FB E8 27 18 1C 17 34 01 2C 99 E2 0A 92
 A2 7F AC 2F 10 03 0D 29 1C 2F B9 C1 6E 2B A0 2E
 54 20 F5 AB BF 72 60 F9 D5 B6 E3 B8 69 7F 80 D9
 C6 10 F3 66 98 AC 66 99 34 1E C4 01 7F 4F 69 88
 F0 64 DA 2D B7 FA 26 C5 B4 B0 6B 6C 77 13 A1 BE
 57 81 46 2B 58 5A 5E C0 0F 5F 61 B0 72 C8 4D 88
 9C 84 39 73 1F 0C 37 4E BB 15 C8 F0 1B 55 B4 53
 9B C0 10 6B B6 DE F5 7C E2 C7 E1 83 21 37 39 A4
 E9 C7 33 38 B8 C0 0A 73 7B F5 B1 89 1A 06 45 43
 CD 63 F5 F9 AA 2B 3E 8A 0C DE 79 73 E4 74 BD 97
 EB B3 E3 B7 1F 34 57 87 5A 6F F6 88 64 B7 67 66
 13 F1 63 D8 37 FB 21 00 57 06 51 13 09 ED 4C 72
 61 66 89 31 BC 3A 73 23 31 82 FF 06 60 7D D8 D9
 23 49 89 9A C6 A6 A7 3B 84 8C D9 94 2E C8 D9 A2
 56 42 F9 9A 0F 1F B1 FD A1 50 8B 84 67 12 FE A1
 CF FB FF 56 AE 0A AF CC C7 B3 BD DF 6C FD 33 F3
 80 84 2B C2 B5 1A B2 4E C6 D5 77 53 83 C6 DB BE
 AF 26 AA BC 60 E9 47 C9 85 32 EF 12 87 F8 8C 97
 26 75 91 3B 8A 0D 51 FC C2 5C 4E 22 31 21 7C EE
 B4 5F 1F 73 F0 7A E9 F4 17 98 70 E1 69 51 DB F0
 60 C9 E9 1B 08 FC FA 90 29 23 D9 EB 07 08 3E CA
 81 50 76 A1 02 6F E6 2C 28 78 E3 9D 25 0E 64 B9
 6D A0 9B CF 4A 8B D5 DA E8 5D C7 DE 0E B4 F9 11
 70 B4 25 18 25 16 7B 71 2C 33 7C 65 34 EF 2F DA
 23 4B EC 44 F4 EF 71 6F 7E 59 29 3E 3C 43 B4 D3
 DF 11 1A 0A 11 CB CE 94 03 58 37 00 F1 4C D1 7E
 68 0E D9 97 A2 DC 91 5F 8A 75 5E 28 A9 5B A2 2F
 B7 5A 27 1E 49 17 2A CF 3C C2 22 F5 19 EE 06 E8
 76 78 57 AA BE 44 01 10 54 38 E6 A8 55 9F 14 5F
 26 AA 54 15 82 B0 E1 A2 99 E8 8D 11 5A 2E D7 58
 42 D6 E9 FC EA 7E 2E 2F C5 91 FC 2C D1 12 7E 58
 6A 7E E0 EE 57 A7 4D EE F9 68 FC 73 83 C4 55 94
 FE C2 43 DB EE 07 CE EB B6 43 B8 73 00 8F C9 0C
 8F 34 8B 62 A8 80 E7 9C D7 18 ED 89 97 03 1B 85
 29 9B 45 B3 33 5A 56 0E A8 7A 12 87 BB 83 A0 6C
 EB B1 62 58 61 49 DD 7F 99 7C F7 AE DC D0 AE B6
 1C DF 86 F4 7C CF 30 CF 9C E5 F1 1A E0 22 5D 1C
 D5 AC 5B 86 8F 86 CC 1D 10 76 7F 7A 35 C7 24 41
 A6 30 1C 2B 71 67 EE 56 43 48 43 6C 8B 25 59 BB
 7B 49 CF 6B 14 DC 11 2A 6B 30 32 99 56 B0 3C E0
 B4 EA 76 00 1A 91 81 09 E7 51 0C E2 9A 97 ED 32
 C0 74 F5 8A 46 19 7C DE 03 FF 49 4F 92 26 33 8D
 86 45 89 51 E8 47 F1 65 EA ED 07 24 31 54 A6 1C
 4D 5C 06 C1 E3 C0 88 E3 DD 20 57 70 F8 9A AC 18
 4A 69 FB 7F 43 92 17 05 F2 21 0F A0 0C DB 4F 62
 1F EE BE 07 6E 96 FD B3 6C 95 80 AB FD AD 21 FE
 00 0B 1B 8E 35 F1 4D 33 63 78 F6 B5 39 C7 79 9D
 F4 61 BB 09 C2 6E 3E E2 17 5C AD 52 04 C4 DF 1B
 EE AE 90 AC 06 FA AB CE 94 E7 4A FE 17 E3 60 E7
 6D 82 DD C9 54 00 EF 8F 23 3B 2B 2A 5B 18 36 CA
 8F 44 50 B4 E2 97 04 56 A5 2C 8A 1E 15 E1 D4 A6
 BD F1 EE AF B9 28 21 EC B3 12 5E 3C 47 86 B1 68
 7C C3 D2 90 86 7A 9B F5 C0 7B 59 E4 14 DE 54 89
 A0 63 C3 BA B7 A4 D1 C3 87 A0 9F BF 7B 7C 5D 2B
 1C 46 87 8B 4A 4E 98 A1 27 18 02 44 7C 3E 3B 26
 04 84 C4 2E 5B E1 E4 5C 4A 00 A7 05 2A E4 53 04
 AF F0 94 8E 07 22 52 CD 17 FA E4 03 89 2C 9B 15
 CD C7 43 67 33 68 04 03 4D 55 BC F1 7F C6 E5 A1
 DC 2E BE 69 85 8D 98 25 CF 6A 34 43 BD 7A 69 79
 76 57 36 C8 E5 7D 55 25 72 D6 B5 15 C7 AF 41 8D
 14 D3 13 75 D7 9D 2F 45 D2 62 E1 D4 23 65 35 7E
 D4 11 66 B7 B3 9A 8F 43 01 BE F3 3E DF 5D FB B6
 61 4E 61 01 86 1B 58 74 72 25 1A 0D 0F E5 C6 C8
 D8 99 92 08 4A E7 85 FB 2E 9E 9B A7 DE BF 36 4C
 E1 63 F7 F3 92 DB 7B C3 5E B5 86 03 F6 FB D9 2F
 44 D6 07 A6 17 94 CD E0 36 6A E1 CA 25 E8 4E D9
 78 BE 0E 5E 89 5E A7 60 20 A7 BB A5 10 0B C1 21
 06 79 60 B2 E7 2E D6 01 8E 2A 45 02 CA BB 43 47
 67 D9 0F D9 D8 F3 19 90 D2 5C 99 EE D0 08 4B 30
 29 5B 35 6A 76 EA 1A 6E EC 68 88 2B 61 7B 08 CE
 A9 59 5B 30 B7 05 08 B6 31 CE 6B B5 A8 A6 59 94
 C1 68 FF 99 D7 39 86 A6 0B 5C B5 9A 11 25 75 8D
 B8 08 C5 70 16 E3 BB 17 05 5F 50 13 56 99 42 44
 C5 E9 1D 24 C1 62 13 65 67 A2 E7 82 24 BC D2 5C
 52 D9 BA B6 D3 C8 5C 25 AF 03 7E 7D 00 73 5E 3A
 39 67 4F 14 73 AF 42 AF 66 20 66 2D AC 1B 38 A8
 59 04 25 01 12 EA A8 BC B8 87 66 CF CF E9 0A 32
 99 DE 54 96 62 1B A7 8F 7B 4D 41 01 1D 51 3F 19
 7C 62 6C B7 64 73 9A F4 C9 BF 51 59 C2 F7 24 09
 46 D3 E7 5F B6 4C 4E E2 CC 30 72 C7 34 44 56 63
 9E CF EA 7E 60 C6 17 BC DE 70 75 50 0A 28 02 B1
 50 E5 ED 34 96 9C D6 20 C0 F5 F1 C1 37 0E 72 FF
 09 47 E4 B1 44 1A F7 DF 97 2F 52 93 45 A4 AF C3
 67 DA BD 70 4A 78 8C C3 C3 AC 6E 57 0D F0 C1 2B
 4D 5F A0 82 2E B4 4D 54 15 D3 68 30 9F 12 28 54
 3E A3 C8 93 EF 4E 0C 36 1D AB F9 47 6D 87 31 22
 B5 7E B4 28 02 2C 1E A0 90 F1 00 2A FB 05 84 DE
 E6 D4 B4 52 CA 4E 1A E6 34 50 10 6E 2B E7 17 E8
 F3 71 F2 4A 5F 9E 89 80 7D DC B0 99 3F 22 5F CA
 91 49 AF 77 FD 54 87 1D DB BC 69 5B 66 7E D2 4D
 34 84 BA EE B8 44 AC 07 7F 8C BE 6B 25 CC FE 4D
 26 78 24 87 21 1C 23 A3 C6 BE DD 16 BA 17 FE 80
 25 37 B6 CB 2B C2 48 D9 41 08 B2 30 95 66 B2 12
 1B F2 9B 9C A2 9E D5 0D 99 73 92 76 27 2E 04 3E
 92 24 CC E4 2A CE 03 90 F9 AE 77 A9 2F DD C2 36
 C0 00 57 8D D9 EA 84 67 A5 75 3D 4F F3 FF 39 8E
 EF DF 59 D2 40 A0 45 CB 02 7C AE 7D 1D 31 D8 BA
 66 2F 4D EF 16 E8 92 5A F1 BB 6C 78 24 21 F2 4D
 F7 7F 20 D9 65 AB E9 4B 4F B7 53 69 75 38 A0 0B
 0E DF 62 EB 53 55 E3 A2 2B 70 56 69 A3 5C AA B8
 E7 D3 C0 6B 7D B2 96 64 43 18 B0 8B 57 D0 35 71
 B6 43 1A E2 A7 02 5A 57 2F 09 B4 99 2C 91 84 F7
 79 E9 2B A0 57 27 47 1E 5B E1 2F 85 76 F6 F3 A5
 3D 60 E3 86 97 73 CF 2F C7 DE F9 F5 4B 6F 1D AB
 D0 FE 6D 25 3D F1 A1 55 40 D5 AA 17 91 6E 58 00
 ED 47 F7 D4 B4 C9 8E 8C DB 31 0D 8B 66 C3 EA 99
 10 80 FC 3C 5B 10 2F BA D4 F4 10 83 B6 1D 15 1E
 FE 19 18 0C 21 4C 13 11 BE E6 7E CE 5C B5 4D 28
 FA E5 8F 6D 00 77 19 93 8A 23 53 FF CA DF 10 A0
 EC E3 7F 23 90 E8 50 86 77 83 B1 8C 78 6C 7A 1A
 E4 77 BF B3 B5 29 D3 0E EA BD 76 F0 B1 E6 A6 5C
 FA 44 5C 0C 87 A9 2D 41 FE 54 76 14 03 25 E9 E6
 07 A4 74 73 67 A2 11 75 60 31 DA 44 44 8B CF 28
 9A 69 D7 08 3E 9A DB 3A 51 FF 56 A4 C5 8F B8 91
 2C A6 C6 2B 06 B6 85 25 4B 61 B4 9A A9 82 B9 88
 3B 4D 23 D8 83 26 6D 7E 0A 90 11 48 93 ED 2C CD
 FB 7C ED 16 22 AD 6E F3 61 B2 08 97 12 BF 6C D0
 F7 E1 7B 87 39 0F 38 CA AE BD 6F 9E 45 1C EE 55
 04 09 7B C1 4F F9 E9 E2 22 87 57 BA 48 62 28 EC
 E0 E5 8D 90 C9 B7 5F DE DC DB 26 62 52 EB EE 1E
 F3 39 18 22 89 2B 3C 87 08 04 D3 13 9E C0 BC D7
 1B FB 61 E8 E6 49 21 09 13 38 BF D8 3C 26 46 40
 7C 5B A3 A5 B2 59 9C 50 9E D4 C8 90 D3 7D 31 BA
 DA 72 F0 F3 B1 5B E9 C2 B5 AD 04 80 11 32 96 0B
 9C 8E EB F9 A0 5B 6F 32 7D CB 0B 82 AF F1 A3 24
 D2 02 03 3B 7A CF 5F 67 2F 96 95 A1 13 09 79 58
 27 0F 39 4C E8 9A B5 F6 80 53 0D 97 43 29 60 75
 D0 24 FA D3 1D 5F F5 3E B2 36 C7 AD 74 97 97 3A
 0C 3D FF 3D 4C 65 AC 8F 02 9B 66 9D 36 94 47 B4
 2D F6 EA 06 DA 3A FE E4 01 93 29 FB FC 26 19 50
 33 8A 7B 6B 59 12 12 9F E3 1B F1 10 24 24 7E B8
 98 CF F8 CE 32 14 A9 CF D6 11 51 B4 BC CE DE 55
 4C 63 8F 72 5D BC 2D 84 20 FB 04 BC 34 F0 0A E3
 61 50 8B 24 CE 56 B0 14 79 14 5D 52 B4 AC 0C 16
 C0 09 0C B1 24 D0 E1 F1 D1 77 3B 1D B5 FE 55 53
 79 38 D4 BA AA 57 2B 4E 7A 8F B7 B9 9A 1F EB 47
 39 06 5E 91 DF 14 E9 BB CE EA 7E 6B AB E2 99 F1
 FD 9A 1E 92 C1 A6 A7 B1 8C 36 A1 9D 2C 7E 01 3D
 E3 72 68 FB 33 82 8E 85 94 44 EB D0 ED C6 2C FC
 D8 D7 4B C6 A9 51 97 71 E7 42 70 08 E7 55 57 C8
 03 EB B7 99 E8 D6 1C 9E A0 F2 87 24 1B 4E C2 4E
 2E C6 53 D4 FC 0F DD 5D 86 9D 75 C0 AF 3E 20 B9
 3C AF DB 85 03 ED D5 2D 00 A1 0D 54 5A D5 47 D7
 6D EC 52 2A 75 90 DE E7 9D AA ED D1 72 94 F9 DE
 66 F3 C8 1E CF B2 8E 16 E2 50 E4 D0 B7 A1 54 69
 CF 59 29 3D DE D4 B0 9E 35 82 99 C1 66 D3 DD 74
 C3 75 43 43 E5 80 3F EC 24 8B 97 DD 7C FD CE 1A
 C7 89 72 EE 3C 52 0F 8C F9 A4 F3 68 14 3E EB 46
 01 70 C8 8C A2 60 D8 AF BD C9 65 49 6C 0A B0 9C
 0D AA EA C7 7E 5F C4 90 3B 2F 4B 65 3A EB 14 71
 C9 F1 9A 02 6A 26 4C 30 0B AA C0 44 4A 66 D7 1F
 10 50 63 41 EB 61 93 72 63 50 65 78 73 4E 3C CF
 72 69 12 97 47 E2 B0 95 EA E6 75 7A 93 57 35 65
 4A 61 03 FA 2F 70 D2 9B 9B 65 79 B0 F4 EA BC DD
 9D EF 12 ED 3E DC 81 6E 81 F0 0E 10 AD C8 8B DD
 E0 CD 3A AD E9 A0 11 6C DE A1 12 27 2F 0D BA E2
 19 7C 65 1E B4 3C C5 5E 12 D2 85 E8 38 3A 39 38
 3B 1A DA 91 1B D1 0B C6 52 FE 3F A1 0D A6 F7 F4
 8A 2B D6 86 32 F5 9F CA 86 5F 12 F2 EB 2A D5 DB
 9E 2D AD 47 AD 7E A5 9E 8C 9A 14 F6 4C 22 FB A8
 24 15 02 09 99 A3 FC 4C 12 52 98 55 22 4A 7E 8D
 BD 3D 63 2F F9 72 2D BC D5 ED 42 F8 FF 16 85 2A
 50 4B A7 C5 C7 54 8D 13 5B 7E 25 0B A5 E8 8B 2D
 27 BE 3F E3 FB 30 D5 A2 08 04 08 A9 41 9D 54 C6
 03 12 58 6E CF 9C C8 1E 83 9F F3 E5 50 F9 13 18
 1E C0 5A B5 2B E2 C8 18 FA 0A 71 0E F3 F5 F9 6E
 07 E4 6C 62 E9 84 94 34 2E CC 0A EC E0 84 A6 CE
 99 BF EA F4 56 85 20 9D CD 04 24 7C 56 A4 02 4A
 B7 27 AF 23 6A 0A 8E 7C 34 FB C3 82 A3 5F 2B AC
 FE C2 DA A3 4C E3 F1 A3 96 F5 6B 37 E7 F0 EF 1B
 DF 20 1A 75 B3 0B 5F 85 46 91 FB E1 C4 58 CB F7
 0F 59 F9 F5 5F CC 2E D9 B8 29 E8 89 BE A5 50 10
 1C DF 2D 2A 3B 2C 14 8F 05 4F 89 AE 24 CD 79 ED
 09 D2 0E FF 25 0D AA 64 13 E9 87 44 8E B1 7B 90
 AE E5 8F AC 50 83 A7 64 67 26 77 F4 DD BC 3F CB
 61 3D 67 65 57 18 84 19 F6 0C 6C F1 70 86 18 2D
 01 9E 54 01 2F 0F 51 FD 95 F9 00 1F 07 7C 72 29
 AF 26 F4 48 1F 37 74 1C 7A 1D CD 0C A4 2F 4C 2F
 AB 88 EE 5A B6 CE 8B A2 CC 03 D5 D5 72 83 B1 34
 FB E4 9C 86 D2 AD 92 54 45 13 C4 47 A8 66 72 0A
 81 25 43 CB 55 DB DD 35 32 9B 28 48 C6 61 1C 01
 C1 3F 11 94 5B 24 3F 21 D4 CD 31 C6 B5 B3 86 30
 9D 39 84 BD 38 13 EC 49 F9 EE 7F 52 12 5A EC EB
 42 6C 59 36 88 7E D8 E5 CE 9B 94 5D 83 E3 36 64
 D2 DB CE BD 60 0E 07 99 12 46 9E 55 E0 D2 E4 59
 AC AF 4D E3 DB 01 2C 25 AA 82 30 D0 4D 60 78 75
 5F BC 8A 91 0D 15 99 46 8D 02 A6 E6 02 44 F8 48
 60 CF 19 A6 60 E0 C6 17 94 24 CC 4B 27 2E 0E 2A
 7E D1 58 16 D3 1C 96 42 60 30 C2 24 BD 4A 55 1F
 F1 D1 31 24 EC 0D E3 2C 8A 73 6C 2F 10 10 CB F5
 CF 9D 72 69 3A 7E 69 C8 8F F9 9B 46 A1 0B 45 47
 6C 5F DE F2 37 82 AB AA 3B 8F BC 52 AC 13 B1 54
 AD 66 8B 67 A7 ED 11 73 88 06 C0 ED 1D 6F E0 BD
 10 6B 87 A2 E6 6F 20 07 82 D4 23 67 41 F8 51 CC
 19 3C C1 33 8A BB A7 6F 5F D2 D6 E9 09 50 C2 80
 1B 73 E9 14 DC AB D1 42 06 9D 82 88 55 19 25 BE
 A9 4E C5 CE 66 E3 89 61 84 5B FC 80 DD 05 78 D8
 C1 A4 A3 78 B2 4A 20 7E 9E 73 FF C9 6E 7C 69 96
 58 12 1D 76 14 36 CB 55 89 A8 CE 77 11 DC 65 07
 29 BD B9 37 65 F2 C4 FB 8E 84 9C 4F 43 A9 93 83
 A4 87 58 F9 29 99 BA 58 C3 5F 23 6A B9 5C F7 8D
 5B 79 6C 1F 11 04 14 8E 6A 6D 20 4F C5 21 55 DD
 CF 64 A5 90 91 88 55 B2 73 6A D2 43 77 F2 BD BC
 7C 3D B4 26 75 02 14 E4 FB B1 A0 B2 A8 F2 B6 B3
 7F 5A 3F F9 65 B0 23 94 41 91 6F 31 9F F8 0B F7
 1E B9 C4 02 3A EC 74 72 79 A3 87 80 2A C8 F4 6D
 03 1A D3 D7 ED 78 CE BE 7D A5 04 06 EC 79 CB 7C
 4E FF A0 45 13 A4 9C FB B9 7F 3C 94 6D B1 4B 32
 9D 05 9F 51 67 EB E0 29 8B 8D 33 60 04 80 7F 88
 F2 66 30 EB 3B 58 5E 11 DA D5 02 B6 6E AA CC 13
 FC 26 39 C3 93 82 0D 4B B7 84 5D A2 30 7C C6 23
 66 F9 ED F6 5C D5 90 83 9C C6 8F DC 04 C2 F1 44
 3A 30 1A CE B6 B2 B2 07 C4 FE E6 74 98 BE CF 1B
 8A B4 A9 13 58 E9 B4 B4 5A B3 61 12 50 CC 02 AB
 61 80 4E 19 1E 02 5F 7B 3E 81 18 D3 F7 8B D6 8F
 D4 E9 E4 67 B8 55 39 8A 80 05 72 D5 AD 73 9F 61
 F3 D7 CA 6C 25 FB 86 E9 F2 BD 34 50 CE 6D 4B B4
 35 CC 3F E2 A6 BE 5C F7 2A B8 3B 25 31 6C FF 01
 E7 13 D8 06 75 A1 3E DE 22 D6 EC 38 3A 6B 3E 34
 6B E9 C9 C6 D8 B8 BB 74 CB CD 1E C3 2D F8 20 EE
 22 00 A0 5A CB 72 68 BB CD 14 1C 5B 60 8F D6 06
 35 BB 14 37 9A E2 AA E9 95 24 55 BC 5A 11 5F 93
 7F 2C 7F DD A5 BC 21 00 EB FC FA 45 FB 19 49 67
 16 5E 13 8F 0C EC 5F 78 3E A2 DA 45 D6 25 41 A9
 27 3D E3 03 AA 8A 1A 0D 48 8B 6C 7F C8 FE B0 3A
 9B 5A 43 E0 07 92 2E 8C 04 72 2F 20 05 FD 94 F5
 9D 03 ED E7 88 C9 38 78 44 97 EC D9 FC 7E D8 51
 97 B9 3D 38 B9 7A B4 B0 F9 1F 15 4D C2 34 76 78
 C4 C6 15 D0 F8 1A EC B9 06 7B D5 BF A7 4B DE 43
 66 C1 DB 86 1F 94 35 81 5B CD 3E F8 59 81 92 6B
 FB CE E8 A9 0E 2C 22 53 4F FF F4 10 9A 9A E8 AB
 2E 7F 73 0E 2A 29 AD BE 08 CD FB C8 FF DF BF 9B
 1D 18 C4 1A 48 AB D8 C5 D1 2E 7C EE 2B 1E 86 20
 1E 60 E2 C2 02 81 5B 32 E6 A1 CA 51 2A 2B 12 CD
 1B 8F 8A A2 EA 97 87 DC FD 7B AF FC E8 56 7B 59
 04 B4 CB 84 C7 64 79 7C 91 23 FC CE E6 F1 8D F5
 19 8F 11 A3 5E 6A C9 D9 59 2B 0D 23 77 F0 B0 64
 72 1E E6 E9 B8 C0 A7 6A AF 5A 43 FB E4 B4 44 6B
 CD C5 94 C3 1A 11 EF C6 D9 F4 01 AF 37 4D A5 A6
 14 50 2A E5 30 0F 2E 8B 70 FB 90 21 EA A3 1C C8
 0E EE 53 87 64 7B 54 A7 BB C1 5D 43 9F 04 0A 66
 E3 1B F3 14 C0 1B 23 19 37 EF 99 AD F6 2E CB 91
 90 2D D6 AE 71 9D A7 D0 2B F8 68 F1 95 81 4C FD
 90 24 B3 F7 96 E6 6B B4 D2 95 7D B7 77 0F CB 8C
 4A 51 0F 44 49 67 40 39 50 D8 B3 F8 EE 5C 74 4E
 FB 4F D3 64 16 D8 C6 8B 9B 58 15 7D 71 EF 8D 89
 7D BF C9 C1 F5 2C 62 1F A3 26 A3 F5 4D 51 81 68
 2F E8 F1 BD F1 00 70 97 79 48 C0 0D BF 01 CE 35
 2A CF 9B 93 F4 48 60 3B E5 4D 2B 4B 99 2C 53 FD
 01 D1 55 7C 72 D6 5C F2 6D 1A 9A C7 47 DB E4 B1
 FB 43 AE E6 EB 7D 67 3B BA E0 CA CE 4B 7E 5B 59
 1E 20 5E 17 F2 FB A8 6B EB 7B 98 86 ED EE C1 2D
 32 BD 06 79 CA 4A F9 0F 36 CF 12 FB F1 DB 9A 30
 27 5F 3B 72 3E D7 63 25 D2 50 BD 5E B3 8F BD A7
 FB 96 F3 C5 48 83 46 C0 43 DC A7 5D B4 6A 29 05
 36 C5 D5 5C DF 93 99 52 C0 16 D7 05 6A 7F 1F F5
 8E F8 9D BB B5 B9 55 76 56 2E 35 DF E6 AF 3C 4C
 63 86 1C 17 AF FE C3 61 02 00 C4 9E 99 4D 19 84
 4C D8 48 82 47 62 D9 38 C4 11 A1 F1 AF 07 35 69
 89 B9 41 AF B7 3F AE AD 3B EF F5 B4 86 6C DC D6
 26 FA D2 5A 46 7D 61 1F CE FB 90 88 F1 76 BB EF
 CE 8F 49 5C 8E 4E BF 05 1B 3F 96 07 1B 3F 15 49
 3B FF 1F A5 3F 99 83 ED 3B F1 CD AF 66 86 DD E5
 B3 54 DB B5 94 2A 6B E8 80 A3 9E 35 B7 12 B7 F4
 B7 B5 28 1C 3D 4A 94 D7 B0 9C F5 42 F2 D0 00 81
 5F 51 6C 6C 91 BD C3 B6 00 B8 9E 30 BE C9 97 39
 E3 42 7C C0 74 5E EE 03 32 F7 B1 C2 A5 E5 92 2C
 00 05 E8 F6 A0 DB BF 25 4A BF B0 03 0A AA FF B2
 93 F5 D0 6D EB 57 72 B0 94 E4 23 6A ED B4 6A 64
 21 F2 86 DA B9 57 C5 46 6B 89 58 98 E5 76 E6 01
 95 0E 6D 00 54 05 99 B4 68 6F 83 51 44 5A CE BC
 E9 7B 13 1D 89 7B F7 81 DA CD A4 2A 21 9E 93 E0
 D4 17 48 7D 99 6B C7 29 2D 5B 70 8F 3D E7 E9 CF
 C5 7C 77 00 7E 8E C8 52 10 B1 93 37 D2 83 E7 BB
 F8 88 32 9A 08 1A 6B A9 BC D4 8C 81 7A 38 DE 4B
 6D 48 ED AA A1 55 2F CD 32 17 93 A1 B9 1E 18 DC
 C5 F9 35 F7 BD 24 51 68 D2 BE 21 84 CA 06 A2 05
 95 CD 4B 40 C8 E2 CD 8D DB 08 E3 76 7B 44 8E 2F
 7F 8C 88 CA 51 11 CE 4D DD BA 17 5C B7 95 C7 2B
 AE F2 E6 D8 A5 C3 6B 51 CD 5A 61 3C 0A 49 FF 11
 06 A8 D6 D2 E9 A8 5A F8 C8 D0 36 46 87 41 02 2F
 91 83 93 3B 2A EB AB 46 43 2A 7E AB EA 7F 52 2C
 F7 CD E1 05 12 B5 A1 83 2B 38 7B 63 7F 18 35 74
 3E 3D D6 2A FC 9E 1D DD 67 ED EE B3 EF 52 B9 95
 75 ED 34 BE A5 F4 C0 5B 5A 09 23 12 3D 1E E8 D3
 03 9F F4 1A B1 58 CA 6F D8 78 97 28 D3 9F 5F 9E
 4B A1 E8 0F 04 BF 55 AB 46 68 EF 6B 7F 12 0E FC
 B2 A4 99 E2 23 5F 03 4C 65 71 6E CC BC 37 B0 B6
 93 F4 71 5E 6E F7 CF 5B 4D FA 0D AF 45 27 9F C6
 2A FF C3 4B FD 79 87 81 97 9D C9 A4 30 FB 7F 4E
 88 A6 7B FF DE F8 51 13 74 A3 85 7B 3A 37 DD D4
 2F F0 81 BC 5B 93 D5 7A 5D 8E 52 AE D7 0F 98 FD
 14 A2 1D 0F C9 6F 40 B6 6C 91 D6 12 04 14 35 4B
 F7 BF C5 85 AB 51 5D AB D8 EE 29 5C B9 D0 08 6F
 D5 96 22 26 29 AB C3 5E 7F A0 15 99 47 76 44 E3
 92 EE 9F 7B E2 13 4B 09 18 EF 28 95 36 49 5E 55
 48 BD 39 B7 09 10 80 FF 56 34 AB 23 BE EB 77 66
 DD 1F 54 FB 5E 5F 8A 29 68 17 F0 A9 D5 D1 6D 6D
 15 50 E9 C1 6E 64 E7 51 E1 BF 80 DC D6 0B 5C DB
 EF BC 2F 79 0F FA FA AA DB 31 BC 8C F3 D2 F4 6A
 BC 01 F8 19 F5 EF 0A CD B1 43 DE 59 7E A4 1D D2
 31 8C 2B 3D 77 7A 9E A4 68 53 A3 3E 97 40 7E 62
 5A B8 B5 95 1E BB AC 2D F9 99 3C 57 05 92 7F D0
 38 C6 5F 25 94 F9 79 DB AB 81 1F 26 EC 71 92 A8
 26 69 AF 55 CB 38 74 C6 66 A1 C9 35 93 96 20 D0
 BF D1 12 73 FB 20 2E 87 30 7E 29 3C 78 FA FB 39
 30 D0 F8 2A 54 8F 88 CF BC 0B 8A F4 38 6B 28 C9
 68 2B 20 1C DB 2E 93 66 29 45 10 F9 2E 29 33 37
 C9 03 09 17 EF AF 16 AB 8E 90 7A 21 F0 64 07 C8
 C7 B0 34 8F A1 1D AF 52 DB 4C 2E 73 72 FD 21 E5
 97 0D 4D 23 03 78 8F 5B 6E 3F A2 66 8D 55 51 A7
 43 BA 76 B9 5C DC 4D A9 4E DF 3B A6 EA 48 9D BD
 1C E6 72 18 1F F1 A8 5C CE D7 85 84 3F F6 B7 38
 68 5F 84 CE 26 B6 D0 96 69 C8 88 98 B8 7B 5A A5
 51 C1 66 C8 B0 AE 8A 9E 9A 25 2A EA D4 BF ED 3A
 16 E2 10 0D A6 99 6A 10 96 CF EB A0 0D 02 83 F8
 BE 22 E9 C3 D3 1D 3E E8 C6 74 AE E2 F5 4C 39 2A
 5F 70 FB F1 BD 01 4D D5 28 97 6C 7B A9 13 71 F5
 E1 23 4A 49 25 8F C5 E4 04 85 1C 61 59 F0 84 BF
 F2 4E 93 DF A6 9F B3 F9 43 A8 DA C9 C5 B6 59 53
 6D C6 7A 25 72 D8 FC CE 14 6C 8A 16 12 45 12 4B
 65 9C B4 BD D9 C2 7E 1A 0E 66 58 D2 10 BA 06 07
 6F C9 A4 78 FE 37 84 3B 03 88 CF 30 D6 77 20 56
 67 EB 1C 56 23 00 71 25 0F 7A 52 5C B8 34 C1 3E
 63 31 E4 D8 A0 CE 96 B7 7F 81 39 C9 F5 0B BE 12
 2C 1C 1A 8D 13 16 88 AE 7D A7 50 88 8B CE 7B 94
 8E C6 30 13 D4 30 9C 12 62 DA F6 63 11 EC DA EE
 C3 A4 BE A5 1C A8 BA E2 9E B1 AB 00 11 2D 04 C0
 D2 7F DF 9E 51 1F DF 3C E2 E9 0A 74 16 5A 6B E0
 D0 18 33 87 87 AC 3C D3 A9 47 7D F2 4E 59 E8 E9
 E7 EA 52 52 26 6B C1 74 F1 B2 6E AE CC 64 44 21
 D7 42 B6 A6 A7 A1 74 66 6B B1 E4 C8 38 9A 53 B3
 BB 8F 2F 99 31 33 6F 09 97 D7 7B 3C F6 63 23 02
 62 D7 12 D3 98 D7 2C A8 DB 4D C7 E3 EC D0 8C 8C
 9A 41 99 A4 D0 9A 27 53 36 F5 2E 88 90 B4 96 3D
 E3 E3 60 CE 29 FC C4 CC 20 63 DF 6D A5 0D 19 BC
 D8 BE C4 93 EC 94 21 0D EE A5 10 DD 33 03 0C 00
 1E 75 F0 A5 33 28 D1 13 92 BD 3A 67 61 59 26 FB
 B5 65 0A 0A F4 05 66 A1 54 A3 59 A2 49 AD 81 E8
 C2 0E 61 EA C3 09 EE 6E 54 4C 20 6F D7 35 02 E5
 0F C2 2C BB E7 0B 58 19 00 B4 C9 4B 6D DB 88 34
 EE CE 88 DC E9 05 81 25 E1 A0 C9 90 25 AC 32 B3
 F2 49 6D 53 2B CA 19 25 59 84 28 97 40 47 DB 02
 BD A5 E2 3A 97 96 77 03 91 CD F3 DD 4F 29 9E C3
 2A D9 0C FD A8 C9 22 F5 32 53 8E C8 3C 0E 4F 3D
 B5 7A 5F 52 16 4E 03 AD 52 E7 86 9B 93 34 2F 30
 5A 3B 5C 26 0C 2F A7 8B 31 BE 87 6F 76 49 B8 34
 BB 7E BF 82 84 BB EB 48 42 1E 21 95 76 08 F9 0C
 43 F1 57 8D AF 65 FA 00 7A 8F AD 5C C8 15 98 C0
 14 E4 37 AB 4C 39 42 E7 42 60 07 7B BD BB E3 3C
 15 32 34 0F DE 85 18 51 7A A4 19 EE 0B AD D3 1F
 84 34 52 9F 6D C5 86 C5 BC 40 7E 5F 6A 91 95 96
 83 11 4A F9 3F 19 0A 2C FE F6 4E 82 96 47 35 65
 95 50 B1 D4 06 FB 61 FC 16 BD 8A 57 55 8A 4B 2B
 36 0B DB C0 FE E8 72 3A D9 EA F3 32 2E 46 B9 30
 0D 2C 8F 8C F1 D0 CB 0A A6 F3 11 51 4F 32 3A 52
 8A D6 A7 8F A5 98 DC 8E 3C E0 7A D4 92 52 0A EF
 F8 58 53 8A 23 BB 89 47 A9 64 2F 52 B1 CE 7C 6F
 CD 8D 87 DB CD 48 A6 08 0F BF 00 62 78 72 41 4C
 E2 87 3A 21 55 F8 4B EB DC FF EE 69 7B E9 6E A7
 A3 B8 A6 81 75 C1 D7 D7 CF F9 27 D3 5F CF 18 33
 15 F4 14 73 69 B6 73 34 02 73 47 7B DB 10 94 C2
 9B 71 A8 6D CA 96 A0 5B 9E 3F E9 97 A2 CA 99 83
 99 AE 49 93 90 99 64 35 B0 93 91 84 FE F0 9A 59
 BE F3 66 8B F5 BC B2 71 64 E3 55 53 8C BE F3 C0
 4D 76 B4 DE 57 18 83 D4 99 99 59 6A 20 57 C1 5B
 FF C4 FF F6 29 CD 41 3D D7 26 B8 32 D5 D0 C2 A2
 DA 41 46 3A F2 06 CA CD 2A 9F C9 C2 BA FA 6A C3
 C8 91 8D EE 50 D7 3F 79 8C B0 7F B3 D6 AD 21 8B
 95 4B F5 B1 AA E4 21 00 10 40 A9 05 22 70 37 6F
 4E 53 FE 42 73 9F 35 73 EF CD C0 B8 93 45 4D 53
 EC 61 B5 22 F0 B0 D7 CF F9 D0 06 EA C3 51 9A 45
 ED E4 BA A9 5F 59 44 1C 6C D6 FE 18 E0 88 19 80
 26 59 F8 4F 5B D2 C1 AC 71 9D 63 EF FA 6E BC B6
 EC DD C7 32 9A A3 80 97 C8 23 48 29 83 40 22 6E
 96 C4 06 6E 6B 45 E8 0B 1C E5 DA 14 36 AF 54 B9
 74 22 20 D6 46 85 8D 32 A7 05 06 01 4D 02 8D AC
 05 56 66 54 97 A8 78 5A 92 C3 1D FC BF CD 84 AC
 BE 03 93 F0 7B 18 C6 48 B2 3A 13 FC C8 29 F6 A0
 FA 1B 1D 12 5B D4 1F C1 09 A8 B8 5E B2 05 85 95
 D4 BF 54 8F 68 18 45 FB 4B 6B 7B DE 02 58 43 FB
 44 4C 96 D1 00 E0 0E 26 F5 98 5A C5 74 81 64 82
 D4 6C 9F 97 73 C1 81 01 44 BE AD 6E B5 89 46 59
 74 2E 54 00 E5 DB A1 3E 2E 6F 3B 89 59 3F D5 E7
 5C 20 12 E5 21 90 28 10 7E EA 27 FE 8A A2 8A 27
 30 E8 0B FE E0 45 40 C0 A9 9E B8 5E C9 17 46 D4
 EB 70 DC 48 ED 76 62 09 54 3E FA 92 51 07 DA 7A
 39 E4 0F 3D DE 3D 47 D7 AF A5 C2 7F B5 73 B0 D5
 19 FE 01 9C 49 33 10 3B 86 4A 50 7F 18 8E 22 C5
 FA FC 87 99 33 AF 99 97 81 DD 40 9E AE 82 7B A7
 B0 05 3F E1 05 5A 45 B2 CC A9 B2 D2 AA 9A 6E 43
 5B 9C 8A 21 BA FF 0B 14 3E 34 1C 4B 5C E9 2A 40
 42 74 AD FC E4 B5 04 E1 0C 58 17 CB 6E 3C 9B 55
 F8 2D 79 51 13 6C 5E 48 7C BB 4E 6B F1 94 E8 42
 5E 84 38 87 CD ED FB 8A 3C 8B DF 21 B4 60 40 CB
 B6 4C FF 7B 0F 57 B6 15 6D A3 C1 AB 6F 8A 12 16
 3B 3A C2 C1 09 A2 4E 91 2A C7 73 EA FF 9C 88 93
 D2 D5 EC F2 4B EE 96 92 02 2D 7E 5D 1E 4E F3 EF
 0A FE 25 54 70 74 22 A4 B7 12 AD BF 28 80 1F 52
 ED 0F FA B4 A4 BF BC 63 D1 EF C0 79 2B FE 69 94
 1B D6 B7 5B 73 2D 68 8B 88 00 77 23 38 8E 73 A4
 01 9D A1 CE 16 BA 78 51 6F 6D 71 4C D6 64 7B D6
 88 B9 0F B8 18 8A 07 D0 89 8D 0B 41 E8 DD 84 48
 DF A8 CD 07 56 C3 F2 F7 84 1D 58 8C F9 B0 78 36
 39 1D E6 18 07 2E BA 53 FC 56 7F D0 F6 66 E7 99
 62 14 E3 AD 7F 05 ED E4 FA ED 69 B9 FB C7 90 BC
 4E 9C 0B 9C 60 32 70 81 10 E3 B6 00 F2 63 FF 3E
 81 8A 9B 16 EF 23 4D 46 68 3F 97 93 61 41 84 A3
 A9 AB E9 23 05 4B 60 17 B1 70 77 9F C2 15 97 59
 8D 2E F5 95 1C EB FD 1C 17 19 3F BC 3E CE 29 26
 2D 29 95 6B 44 39 54 71 80 CF 03 6A D0 6A 57 C2
 13 76 F8 16 04 A6 E3 FA 11 CB 2C A1 23 C1 81 23
 88 B8 1C D8 07 50 98 42 5D 5F 6F 72 01 92 EA E9
 6D 85 A6 DC 1B 28 1A AE 87 38 C6 97 FF 26 7C 80
 1D DC 7E 1F F5 AA ED 59 28 D0 F3 A4 1C CC 49 03
 91 FE 90 B0 7C CD D0 1B E7 94 CD A0 A0 21 E9 21
 98 A9 A1 1D 3A 74 2F C9 54 50 D7 1A 83 3E 55 A4
 6D 31 3C 38 AE CF 07 E2 D9 FB 8F 6F D9 37 E1 CD
 1D EC A9 5F 85 E2 4D 3D D7 B1 BE 43 43 02 F2 64
 FA A1 E8 90 1D 03 7D 96 B5 6E C6 4E 49 94 8B 1F
 ED B2 1B 3E 9F 5A 10 0E AA 84 D7 3E EB 36 2F 61
 3A 76 97 56 44 55 CB 78 9E 76 25 83 6B 9C 6B C2
 F6 D1 C0 CB 4F E4 D4 6E DD E0 0C A6 34 AF A9 EA
 D9 90 9A DE 61 A8 3F 51 CC D5 8F 8C B4 C3 47 2C
 2F DE 9D 28 60 D4 29 60 9E 3F 78 35 97 EA D0 DC
 45 2D 3E 3B 22 09 52 40 3D F0 DB 76 D6 6E 45 FE
 C3 03 26 6B 0F 3D C6 18 29 E8 DE 83 D4 96 5B 75
 13 3A F0 CD C1 EE 9E 10 89 04 9E 29 E2 88 17 9A
 F7 9A AA 0B 5A A2 69 72 FD DC F4 91 B4 C5 CC B5
 7D 63 A8 5A 3E 10 25 A5 DB 5C 92 90 13 E0 AE 7D
 D8 90 41 F3 70 21 0A A9 8A 6E 5E 87 9D 03 CE 41
 72 77 6A 35 B6 42 88 89 D2 5F B6 CA 78 45 8A D4
 29 40 C3 B1 87 4A 58 3C CD CD F1 4A B2 6B 78 05
 51 47 FE 64 99 86 A6 36 75 C5 6A 8D 3C A3 4F 2A
 C0 DD 4F C3 B8 9B 4F 79 5D E8 62 0E B5 2C ED 3F
 A9 27 60 10 88 62 16 FC E2 42 58 F4 37 79 79 7E
 B5 29 4D 85 2C 6F 4A B0 9D 11 2F 71 11 5D 8A 6C
 6C C3 72 2F 15 FE 00 24 6B DD 90 DA 2C 78 C8 03
 CC 7D 64 2A 31 0D 0A 5C 0D 55 DE CF BA B1 63 58
 3F C7 A1 57 88 75 3D 13 03 44 33 AA 44 AB 78 BF
 13 17 51 6F 83 39 A3 10 C5 E2 BD D2 7A 7C F1 E0
 6B 23 0A AF 6F 71 98 91 A7 25 A8 A4 C2 4C 1C 1C
 18 E7 6B 32 EB 31 86 4E 47 3A DD 28 BE BD 25 EE
 FD D6 11 B3 6B EF E8 DF A5 17 3B EB DD FD 72 79
 C5 F6 90 1C 94 50 20 09 8D 04 EE F1 DF 96 EA 9E
 40 4B 49 29 3C E7 83 9E 81 03 06 C9 39 CC 99 6F
 18 96 13 92 8E 45 80 36 75 59 B5 FE F5 5A AC F8
 27 6C 43 53 D1 03 C8 CF D3 46 AD 58 76 F9 B9 63
 FF 27 69 32 D7 C3 B2 BC D9 F7 9E AE 95 D0 88 B8
 73 81 01 54 8A 26 F2 9D 97 CA E0 57 DA F9 CD 8E
 99 E9 3D B6 29 C8 75 CC 1B 11 E6 23 E8 37 D8 69
 DC 01 41 34 C0 45 A8 62 31 9A 65 20 15 16 EE 78
 2B CF E9 30 FF 77 38 6C 7F DA 00 A9 56 6D 05 8D
 A4 40 6E A0 E0 B4 C3 A2 7E 13 A3 0B 9A 39 3F 12
 29 CB D1 CE D9 3F 93 80 E1 DD 59 C9 A2 7F 88 C1
 9C B2 5C CB 8F 17 41 45 A5 98 B8 D8 AB 8B BC ED
 5B BD 75 12 32 DC EF F3 9F A0 CF 23 31 03 AD E8
 1F E6 F7 B6 86 2C 58 AE AD F4 56 2D BB 83 7C 43
 95 23 9E 66 78 D0 81 94 3F 5E B3 E4 52 77 8B D9
 23 5F 3A A8 23 5A 54 C5 F0 D9 36 E6 DD E0 92 9F
 F5 2A 08 B0 73 61 C6 3E AA D6 B9 D4 D0 04 2E 60
 65 13 A9 82 94 93 DB 1D DE A7 CB 0F 18 9E E9 19
 DA 45 3E 7F 83 32 9A 5F 07 F0 FF 42 6D 8A 29 A7
 50 10 BA AE EB E8 10 3E 15 14 7D 5D 4A 7E B6 89
 D5 2B 0D 9C 5D 12 ED A2 6A 2A 4F A4 15 8C 8D 22
 73 0A 54 25 9C 84 B8 62 F5 69 5D 0A 6F 76 E8 99
 4C 85 92 4F 52 D2 73 28 F2 B3 1C FA EA 38 A0 AE
 1C 3C EB 4D 31 9F 48 32 E9 88 2A E5 A1 0F 0B BA
 26 FC 6E E3 38 1A F9 56 3F C4 D3 CC D3 35 47 07
 7F 7D 8B 3D 3A 0C 43 D4 BB A8 E1 6E 73 BB 3C 23
 9D 8B C3 E6 70 61 31 58 F2 5F 58 61 CB C2 81 53
 A3 BB 22 FD F1 A9 98 4A 9D 3D 80 A7 8E 8B 2C 46
 AB F4 EF CB 4B 3B 77 AA F4 D5 C7 BB 62 17 CA BD
 89 58 61 2B 50 08 1C A1 8A 70 EF 7D 35 B4 EA 64
 5A 10 B6 B8 79 44 06 62 EC 8D 36 FA 5E F9 D6 AC
 9C AF AE 66 E6 CF DE 4F 05 AB 25 50 97 26 53 CA
 69 F6 D1 D0 37 D3 79 1E D8 01 E4 88 D8 57 9F 9B
 26 AC 3A D2 5E EA 52 E1 6E D6 A6 1D 48 3E CC 69
 EE 93 68 2D 0B 8D 49 ED 9A 21 64 0A 28 B7 EA 85
 C4 03 8A F3 93 73 3B A4 B3 B8 D6 04 8D 6F 39 23
 E1 01 65 A5 68 3C 8A 89 E9 69 1A 22 7A BB E7 82
 70 E2 C5 05 FF A0 68 2D 1E B6 0A 00 51 2E 59 77
 14 2B FD 64 03 B6 7D B6 C6 F7 BF A0 98 FA A7 61
 10 9E 43 9B E7 6E 1F F6 9E 28 64 C0 12 5B CC 64
 FA 78 D2 AD 0B 2D 0E 02 E0 A9 0C 65 92 BB 72 E0
 72 E0 DE BC 74 DD 65 90 4A D4 57 0B A0 11 63 A3
 C8 F9 5F C5 65 E5 06 B3 CB 71 9E F0 B3 79 D5 86
 E9 5E E3 66 F2 4B 7E 72 F3 F6 3D C2 AA 36 03 9A
 15 12 1E AA F5 34 23 FA 98 52 62 1A E0 F8 2D 6D
 E3 49 1A F5 CE 56 DF D7 0C 3B BD 0E 8D BE F6 74
 74 38 47 D3 26 6F 64 E1 23 CA 11 5D 83 BE 33 88
 CB 13 CD 39 03 5C 74 10 91 79 B9 A9 4F BA FC 7F
 C1 1F 9C 81 F3 7E F1 C9 20 78 0F 66 AE 6A 04 FB
 CC FE E0 52 6B 69 9E 66 EB 03 08 57 19 46 C5 22
 4C 01 B8 5E 0B CA 93 90 77 8F 91 EB 23 E1 3B FB
 D8 4F D9 C7 A6 20 EF E2 80 30 08 68 80 D9 D6 88
 A9 A9 C6 84 C8 FD 70 50 9A 2C 06 26 17 65 BB A0
 AA FD B3 8E CE 96 FF 9C 48 6A D7 BF EB 49 E9 DB
 30 CF D2 13 F0 AA 81 2F 5C 82 89 4B 6F F1 E6 C6
 91 73 EF 70 B1 B9 AA 07 6D B0 C3 B6 A7 14 78 24
 99 C7 B5 38 8B 4F 4A CC 75 D5 38 2F 38 33 78 94
 8D C1 E7 76 FF AB 2C 01 EE 03 D1 F4 A1 8E E0 C6
 C3 6C 5A C9 E5 F8 14 18 AA 19 A7 16 F3 91 06 7D
 FD 6F A0 2A 64 61 B2 54 3B 00 55 BF E0 A3 29 71
 D0 7A 68 E7 ED 4C 24 19 42 A5 43 57 8C C4 FC 83
 EA 48 7B 9B FC D3 FB 4B 58 13 D9 C2 92 24 EA 20
 57 F7 4E D7 99 A9 2A 30 D5 D3 07 2B 68 35 02 B6
 13 2E F0 57 05 78 E6 F7 35 AB 73 20 F5 84 06 F1
 AC F7 94 17 81 B1 8A 5C 7B 87 AA 83 5B 48 95 97
 55 70 D0 A3 57 54 D6 BA 45 DE 50 CB E0 4B 0C 39
 2F 97 C1 DA A8 60 09 18 42 62 4E 44 8E 32 81 59
 63 F0 A9 A6 7C 7B 4D 40 0C 15 5D 9C FD F0 34 7C
 57 81 D7 03 06 7C 8A 7B 35 59 C3 92 DC A1 69 9D
 1B 3E 3A C4 97 30 74 2B E2 D0 03 E8 9C F3 25 72
 A2 EF 5D 35 98 7A 3F CD 6C 81 EA 14 82 40 16 AD
 4C A2 12 C3 70 F8 47 F6 CE 6B 3D 47 80 6D 2A 2E
 F3 37 F5 21 AB 41 2F 94 CE D0 4C 37 B8 1B 14 5A
 F5 74 F5 AA AD 9E 6E 61 02 F6 D5 BD ED 0F 08 BC
 29 16 7A 7D 3C 40 D0 9F 79 5C 0D CD 78 62 79 A1
 15 CE 33 74 8D 11 5E 62 4C 72 7A D5 6A CD 29 AD
 73 D8 D0 24 56 4F EF 38 8E 1B E5 66 DC A0 59 E5
 24 55 B9 FF 06 A1 1F 6D 19 F8 75 A5 1E D6 75 3E
 C7 1A 02 D6 10 30 8A 6B E5 52 F3 CF 08 EE 3B AD
 8E 80 B9 14 BD F0 18 7F 86 E1 C7 8D 3F 15 0F 5C
 8C 40 AE EC A5 1D 88 32
* End 2534423586 1884352912