* LTspice Encrypted File
* 
* This encrypted file has been supplied by a 3rd
* party vendor that does not wish to publicize
* the technology used to implement this library.
* 
* Permission is granted to use this file for
* simulations but not to reverse engineer its
* contents.
* 
* Begin:
 F3 10 72 53 40 D0 64 0E 9F E6 0E D6 7C 35 C3 10
 E8 E7 D4 7A 77 62 70 DC 0B 9C 62 46 AA 3B CD 31
 CE 9F B8 46 DF 3C 39 6D 25 C2 27 98 CB F7 8A 1F
 2D F2 9B 65 C0 3E 8E 84 9E 7E 64 F7 F4 AF 34 07
 80 C0 BC 39 B5 E6 BD 69 D9 23 F5 7E DE 18 F9 19
 32 F3 7C 28 0C E4 B3 1D 6B 87 CC C9 5A 34 9B 88
 F7 AB 88 CD 71 EF 30 EE BF 3A BF 1C 8D DA 88 AC
 E1 43 FB B1 04 6F BC 62 C3 D0 66 75 98 60 46 8D
 C7 00 01 D2 D8 CC D1 01 04 90 FA 59 E7 A4 C1 B4
 EC B8 4B D1 F0 C7 B6 17 2A 84 24 F6 7D F5 23 41
 2F 56 69 1B B3 05 41 F7 80 FC D1 83 B0 EF 05 36
 55 DF E6 51 17 D0 2A AB E1 A8 59 23 09 66 6F 82
 67 50 87 DB 79 76 25 4C F8 09 C3 20 0B ED 46 AD
 D4 CA 3C 90 75 99 A6 92 73 5E 65 0C 77 1A 8C 23
 88 28 8F D3 C9 9A 38 E3 C7 26 00 B3 60 3F 7E 07
 74 1B D8 8B ED BE D7 D9 AB EB 1F BD A6 4D 7C C5
 AD 3A E1 C5 84 79 7B 78 6F BD A9 A7 64 3A 78 E1
 7D 19 30 4A 55 31 4D 43 A2 3B 43 E2 00 42 B5 F0
 75 3D E5 43 43 36 83 9E 70 8E F6 0D 00 42 CD 2E
 E6 F8 99 27 44 6E 3F 2F 76 0F 9A 83 5E C1 CB DE
 FB FB EE 56 91 89 A5 BD C3 09 3C 25 96 89 48 45
 84 AA 8E C0 E3 13 C5 C3 85 48 E5 4D 5E 08 E0 52
 1C 01 6A 67 2F 62 95 43 AA A4 55 CB CB 2D BD 92
 5C 02 17 27 2F 31 69 CB 0F 63 55 71 D4 9E 1F 75
 B6 F8 3B 2E B1 FF 10 DD 80 0B 6A 3A 2F 20 19 CB
 56 81 31 C2 38 E5 7F BB 35 8B 24 B7 76 5E 1E 4E
 6B 6E C4 5F 41 53 0B 45 59 7D 0D 46 1B FD EF 70
 76 2A D6 BE 69 AF 04 48 C3 B9 BA C4 5B B3 BA AF
 B6 B6 BE 74 5A B9 19 61 8F 35 B4 66 9F 12 02 0A
 76 3C 2D 3C CE B3 E4 F4 C6 78 C1 37 83 C4 D2 C5
 5C 88 77 80 2F 1A 3A 8F 24 8B 61 06 13 8A 5A 94
 C2 C2 4F 16 A9 8E 4C 70 83 F2 20 CD 7B 75 7D F0
 B2 9C 6C 72 52 13 3F 9A 18 39 27 F7 4E BD 35 14
 77 AE 85 34 E4 25 FD EC C0 78 09 08 57 5B 3A 09
 21 E3 4C A8 FB 94 DD CC C9 CA 22 46 54 BB E6 D7
 C0 BE B3 79 40 BB CA 09 C3 1F 3C 18 30 AA B5 A3
 09 B4 13 2A F9 22 62 C5 F9 18 7F BF 70 74 E8 83
 8E 2E B8 D2 CD A6 B3 87 43 56 46 0F 79 38 A5 9F
 AB F5 6C C1 C6 DA A2 38 C8 7E C8 4B 8B FA F8 C7
 C9 A3 DB A3 0C 18 94 64 34 34 F7 6E 94 3A 6B 84
 F7 B3 B7 A2 95 40 32 19 67 D0 18 FF 6C 24 65 C2
 ED E9 1A 9E EC 7C 51 16 27 E4 A2 6A 18 10 90 AE
 84 FA 6B ED E3 39 23 66 1E 3D 47 0F 49 45 7F 42
 3D 6F 66 51 2C E2 7F C3 A1 14 94 04 02 78 C2 5D
 63 36 FA F7 B0 B6 82 11 E4 94 C7 B3 61 FD B6 7E
 41 A3 3D C0 2E 16 B1 4A 15 24 13 03 04 19 CE 5A
 8A 6F B3 D7 E2 B1 C3 54 40 FA FF E1 2A FB 27 04
 E9 88 B4 F7 CB 39 CB EA 05 AC D3 E9 D2 09 6F A4
 6E B4 0A 05 00 AA CC 1A 5D A5 4D 43 54 ED AF 69
 1A 6D 98 D0 C7 69 82 CB DB 67 EC FC C3 F8 D5 AB
 F6 BF AE E3 32 3F 2F 08 65 64 EC 6A 1E 7A 91 4E
 B3 DA A0 04 A8 39 42 69 17 4C AF 63 85 B5 71 5B
 A1 B1 4B 0C F9 E5 9C 00 CF FC 31 90 42 41 E6 63
 96 E1 51 92 B8 0D A2 C4 07 E7 6E CB F8 B2 22 5E
 71 07 62 1E 9A A5 55 C1 B1 F3 B9 7D EA EA 4B 62
 42 40 5B DB E9 58 5B 31 6E BE 43 F3 E4 4E 67 3F
 D9 BB 06 AD 9C F0 32 87 28 26 98 65 18 0A C1 98
 40 BC F3 A7 1C D1 C9 77 21 AF FC 84 58 F2 6E E4
 FD 53 EA 2E 4A 1C C8 7E A6 AC 3D 81 32 F3 9E 6A
 41 5B F3 7F ED F8 CE E1 64 A6 EC FD 85 83 35 32
 60 3D 32 30 D5 43 35 A9 E3 9A C5 4C B3 48 BB 05
 61 05 E2 8F 77 E5 F0 C9 A7 12 4B 76 52 A4 F4 11
 3C 2B CF F8 49 98 B4 1A 87 FA DA E6 13 7F 9A 8B
 6A D1 15 27 99 96 29 3F CA F0 76 29 0C 18 C6 CF
 79 97 75 BA 1B 96 A4 07 8A AB 4F 3D A2 3F 9A 23
 8E DE 98 19 05 18 64 25 11 AC 50 51 A1 E5 0F 2D
 0B F2 62 78 83 E3 66 A2 AC 08 96 A9 4B B2 3E 03
 64 3B 4A F9 13 4C 44 44 A2 2D 03 E5 83 DB D6 0F
 85 0B 9E 01 C2 01 B5 02 55 4A DA BF 82 8F D6 B7
 9C 61 6F 27 AF 57 FD FB B4 6E 39 EE C4 59 72 1F
 C6 48 A8 70 E4 82 26 3E 37 42 51 79 30 40 F9 1E
 95 1B E5 7F 16 49 7B 1A 20 96 89 6D 4E D1 CB 2D
 50 71 42 48 8D F0 0B 58 22 46 64 2D 43 55 5C CA
 7E CC 0C 03 5D CF 45 60 84 29 AC 66 5E 53 CA 4B
 02 1F 32 E1 DB 20 7E 7E 75 D0 FB 2A 86 CA 8A 21
 B1 F4 98 98 6D BA F8 37 BD 6D A1 69 EF FB 7D 73
 5E AE 6A 92 80 8A 3D 51 25 9D 09 63 E0 4B 01 62
 B6 71 71 D8 24 71 9C 59 A3 34 B1 76 09 B2 FF 8B
 D1 B9 F5 F4 22 60 C4 90 43 BD 73 AE 07 59 C0 CE
 4B B1 E8 66 18 BC A3 9E 99 A0 DE 96 61 B4 2F 25
 B6 6A 7D E7 F7 04 38 18 05 99 CA B0 52 63 78 49
 4A 6C 64 1A 8E AF 8F 5A BD 89 16 4D 45 77 AD D4
 28 F5 D2 C2 58 0F 34 04 BC C9 E9 F4 B9 E1 92 01
 B4 65 56 FC E3 F9 67 16 0E 1A C2 58 05 73 42 FB
 68 9B FF 7D DA 4D DB 04 1E 9A 72 78 8A E6 1B 70
 3B 39 19 E3 A8 45 D4 C9 7A 3D DB F3 B4 98 72 74
 32 47 42 DB A2 82 24 0D 90 74 5A 83 CF 3D 6F 65
 4E 69 35 D9 B1 12 9F 61 01 5B BB D8 D5 CE 6A 89
 65 EC 33 1D 9E C9 F0 F5 8D EC FB 77 DD 79 7D EE
 1E E5 E5 EF 7A 1A 42 D6 02 8F 3E 94 EE EC 2F BB
 75 00 45 47 57 F1 91 6A 8F 53 37 44 CD 2F 57 B0
 71 D7 35 80 B6 AA 54 B0 6E B4 29 E5 20 86 49 E3
 34 83 EE D8 95 F7 B0 95 23 35 FD 62 56 31 CB BC
 B8 8C 6B C3 96 6E F4 85 7F A1 37 6D AB 26 93 85
 4A FD 57 B4 99 16 79 74 31 F9 2B CC E6 32 24 AE
 3E 31 6D 89 98 3A 93 CA 96 6D 9B 6E 65 D6 0E B8
 EA B6 DD 0E 86 42 93 1F DF C8 34 A8 11 88 9B 5A
 57 C1 EA 6E 99 CD 06 14 0D 7E 8C 5A 60 76 1A F7
 8C 47 BA 04 DB 09 D8 FB 51 B1 C7 37 F6 DC 26 9D
 EF CE 77 49 3F 60 EA 7C F3 27 F2 5C 27 61 89 BA
 19 10 91 FB 92 50 3E 21 3F 72 22 E9 54 17 1C AD
 2F 11 55 3A 2D 34 8D 61 01 C1 18 42 F7 16 8A 30
 62 E0 0C A0 74 73 78 C5 4E 90 94 5E 7E 45 AC A6
 2A 2D B9 41 5F A4 B7 E1 B0 08 4A 68 58 09 D1 63
 09 66 17 4F B5 55 E1 98 DE 90 88 45 E7 C5 EF E6
 84 5B D8 DF 1F 56 AB 39 CA 3E DE 6D 5C C7 4E 2B
 9C A8 21 F8 B1 74 31 AA FC 49 A4 FE DE 67 64 DC
 BE 99 64 3B 45 D1 60 29 8D 91 2C 7C DE D2 1D 7B
 F8 70 86 93 55 28 8F D3 B6 40 88 9D B5 02 DC 0B
 CB 68 AF 23 50 1C 3C C2 0C E0 16 96 96 2D 40 1C
 A4 8F 33 2B A5 75 30 39 78 AB D1 9C 7D B6 53 8B
 FE 46 F6 B4 7B D2 6A A1 8F F2 B3 B6 87 56 13 1D
 C5 AF 26 84 67 82 62 5E 6C 4F B0 F4 DD 06 F6 77
 BB 2F DA 73 4D 94 54 52 00 E9 EF DC 53 7D 6D 77
 B7 CD 23 54 55 A2 54 35 6E 19 E0 44 44 EF 91 07
 4A 23 EB F7 84 B0 7B 94 B5 49 5F 49 EE 98 F9 00
 5E B6 1F A1 E0 88 86 59 19 E0 6A 19 79 A9 60 0F
 13 8E 53 F5 49 1D 47 C7 80 1B 3F CC 29 3A C4 72
 D9 EA 69 C7 2C 42 A0 7E BB 65 57 B7 1D 74 9F 32
 A3 E9 FD 9F D8 3F E0 75 54 93 0E 27 BC 5E BF DF
 45 32 54 EE 22 71 B9 6E BD C8 ED 16 34 11 D3 A9
 73 FD AC 89 65 58 71 9C 59 18 EE 27 ED 3B 94 62
 3C CC 11 FD 6A F5 CB 56 2A 5E F8 63 42 E1 28 5D
 00 C9 C1 59 4D 56 D0 37 56 5B 2F FE D5 BD A6 66
 2B A5 B4 95 59 86 83 DB 29 96 B0 F7 50 8A 77 33
 38 C3 F0 1C A4 E6 5D 2A 20 C7 72 8C 4D 55 C1 B4
 9B 5F 51 6E F9 B1 65 50 32 BC E4 B4 3A C0 11 6D
 F6 95 19 89 CE 03 5F 60 96 CF 32 56 87 DE 75 50
 93 11 EE 72 1C C7 DC 9E 08 1B F7 3D 41 5E 1D 9A
 68 B7 9E A5 F6 CD 2E 01 27 9A 8B 38 B6 B0 DC 16
 25 54 A1 C2 81 E0 F9 7A 29 60 D4 53 8D A7 87 84
 C9 E4 A3 9D E1 6D FC 73 01 7F 93 77 C0 15 2C 1D
 A5 39 E9 69 D4 D5 D1 D6 FA F3 F1 E2 13 8B 66 85
 0D D1 0E FB 57 C5 3D BC A2 06 B4 B1 D4 B4 9C 3A
 B9 A0 AD 18 F1 94 41 24 79 DC 0B D7 AD 85 DA EC
 99 9B B1 68 87 20 C7 55 E8 F0 41 0D 8D 5A CB 30
 1B BD 6E CF D2 5B 14 1E 00 7C 13 D9 3D F0 1A 47
 98 F5 EC 3D FA 54 D4 AC 37 63 61 1F 55 A4 1F 83
 54 B9 37 70 E0 63 41 4D A6 AA 9C C9 23 80 77 E2
 7D 74 33 34 C3 E7 06 03 7B 8E 30 BD 6D C1 E7 60
 E3 F3 C9 BD FB DA BA E0 E3 41 27 4F 24 92 CD 57
 E4 85 6D 6B 19 CB 8B B1 70 4D FE 65 21 97 82 EE
 26 7D A9 52 25 24 CD 25 B3 55 C0 7C B4 29 8D 44
 E0 2E 47 B5 98 13 A6 7B 42 23 6E AD 6F 87 05 38
 C5 FA 73 A5 09 E4 D0 3B E2 64 35 1B 92 D5 36 A5
 54 4F 68 44 33 40 CB CF 0D 75 48 93 D5 16 C6 66
 67 79 BD 10 C3 79 78 F7 DA 91 53 F9 C5 05 98 B1
 7B 3D 15 EB 9F 4D 36 13 0B B3 B9 AC 90 AA 4C B6
 E6 9E A1 94 33 9B B6 AF 68 4B E1 3D 1A 35 B7 35
 53 82 5E AE AC 2B 9E 78 EA 94 09 9B F0 49 82 B2
 47 D5 92 73 01 54 7F 55 21 57 3A 04 22 2C A3 2B
 09 EB 99 AE DA 63 5A A0 E4 75 85 E9 BE 82 10 79
 B3 79 90 4C FA A9 F2 92 12 79 38 8F C1 DB 03 CB
 D9 BD BF A7 FE 8D BB DF A8 C0 1F 8C F1 6A 79 62
 8B 9A B8 71 F6 4B 5A BC E0 44 D1 6D 37 F3 F4 CD
 48 39 86 2E E6 EE A3 97 10 F4 2B AD C6 FF 11 A7
 AC B0 99 8E 51 33 26 A7 4A 2B 4D 66 4C 98 A9 A5
 AB 9D D8 E2 B1 EC 8C 02 21 B0 36 AB 69 D4 B3 EE
 A1 94 6F F2 A1 A3 85 2C 62 50 B0 3E DF 54 E8 47
 46 E5 5E 2E 9C 0C 96 1F DC 12 EC D8 E3 DE DF 7D
 BD 34 1D 94 FA 81 37 A3 6E FF E9 B6 C7 EB 3F 00
 BD 71 4D B0 10 6E F5 24 4C 21 3F FF 0E 68 80 6E
 8F B3 E1 42 95 72 36 04 DA 68 7F 62 17 3C 84 12
 6C DC C7 46 E4 03 6A DC 25 D8 E0 D9 34 EC A2 08
 78 22 0C 6E 0D 34 19 8A A4 71 97 8F 03 BF 33 A1
 9D 7D A1 CE 08 ED 88 F0 23 16 00 BD D7 29 68 E2
 DA AB CC CD 2B A5 31 5A 99 54 BF D5 7B 22 77 06
 0C 1C 84 7E 73 EB 00 81 26 44 E5 9B 2C 13 1C EC
 A4 6F 26 09 0A 07 A8 E8 6D E5 9B 85 1E AC 4D 9F
 E7 64 9D F3 3E 91 95 8D DA 20 35 66 84 2C 97 77
 6A D3 29 00 39 92 E3 DD D2 3E B3 45 8C 46 07 89
 E5 4A 3B 87 9D 7E 9B A2 D3 00 B2 8E 73 48 AE 3F
 CD 33 DB AA 92 B9 7C 5D BB 6A 41 7A 33 72 46 01
 39 26 62 36 31 62 39 25 9F 6C 44 DE F2 E8 DE 23
 71 B7 18 FD 28 59 6F 34 C0 27 35 EE D1 67 98 87
 AA 12 D9 13 F4 EB CC 2D A5 90 2B 40 A1 1D 5B EF
 2E AD 32 2A DC 06 AE 5D 7C B2 B9 3E E5 5A AD 54
 E0 0F 12 94 B9 D0 05 66 C0 48 C1 5F 82 33 0A 6F
 8F 54 8C 36 74 16 46 D9 33 1C 46 D3 F7 48 2C F5
 6E F5 9A 38 9D E8 80 C4 D0 A3 52 44 96 20 29 9F
 B6 D0 DE FF 61 C3 D6 78 A0 25 AE 07 34 9C F8 6E
 80 A3 F4 84 4C 1E F3 68 15 4F 08 45 77 E1 29 4F
 67 C1 C6 41 3B F7 AF CB 87 40 E6 81 D0 06 CF EF
 2E BC 42 40 26 7A D2 AB 15 AB 71 E5 38 94 C1 73
 6A 2E 0C 94 F5 7E 90 2C CC 04 58 28 B7 1D 6B EF
 D2 A4 5E 17 83 01 83 BA 87 6E 56 CC 79 10 38 E5
 AF A8 8E C3 C9 3A F6 D1 B1 88 97 5D FD 65 06 33
 C8 5F D1 13 F6 1A C1 9F 90 52 BC 29 E3 DA B3 A9
 DE BB 6C C2 C8 A9 D5 34 57 7B 12 C3 8E 75 38 41
 FE 8D 51 06 DA B2 09 59 99 34 BD 1C CE 37 75 BD
 E2 A9 55 A6 7D 8B CF F7 51 E7 A4 F3 36 83 EB 0F
 35 1A 92 75 29 EF 8E 8E C7 BC EF 0B D5 59 D6 CB
 78 1A 61 78 F5 40 84 B4 56 73 82 CA CA 71 7E A8
 DC 47 A9 04 04 BC 04 30 F8 B5 7A FA 2C 2D 3C 09
 B2 17 5A 37 05 99 35 FA 20 FC CE B8 F2 57 F0 55
 61 F9 07 85 98 3C 22 8B 82 F8 90 A3 CF FA A1 D7
 41 9A 49 F9 79 8A 96 2D 7D 6E 0B 94 93 1A 44 03
 FC 5C 73 99 21 DD 2D A1 37 E9 65 D0 02 F5 45 D2
 42 B5 93 77 D5 82 86 29 47 62 83 33 85 F2 B8 C9
 C6 BC BF 44 5D 54 C9 67 13 A2 C2 C2 31 D6 45 83
 74 29 E7 C8 8F 49 B0 36 4F 64 59 25 F0 EE 3E A3
 EF 01 AD 9F 2F 5A D5 29 72 F5 B2 B4 CF 7F B6 C1
 EA 77 AC 64 46 89 EA 2A D1 E1 8C D4 1C F3 39 46
 D7 15 B6 2D 8C 77 89 3B FE BA D7 FE E0 5E 6A BD
 03 24 E7 0E 29 E3 A3 73 20 72 EF 8E 5E F5 8E E1
 93 75 1F F4 C6 6D AA 29 96 01 56 92 4C AC 53 F5
 4D 61 3A 1E 00 4C AD DC C8 1C 72 F7 BF 6F 0C 00
 97 54 A4 61 FA 80 D5 98 8F 9D BF F6 D5 5F 8C CA
 CC AA 58 2E 17 28 A8 C0 6D 69 CE FC D4 58 25 3D
 B0 C8 71 E7 3E D1 52 06 0E 67 CA 51 86 74 B8 2C
 88 2A EA A4 BB B8 91 FA F5 EC 00 B7 1F 88 D0 B9
 41 FD 5D 7E D0 62 CE 04 B4 18 FC 1E ED 21 CF 5A
 70 BE 3A C9 A3 9F B7 C9 98 F5 45 92 41 0B EC DF
 9F 1D D8 FE ED 21 8B 3F CE DF E5 99 76 28 28 34
 0F FD 7C FC 3D 52 37 78 61 67 D4 F3 98 A6 87 38
 9E 2A EC F7 DC 97 BC 8F FB 7B 40 AD 0D F6 CA 8D
 EB BE 1A 10 11 FB 80 8F 21 DC 70 8D 5B 2C 41 BC
 ED 2D D2 07 AB 69 D2 5F 55 6E 8D F7 E0 0D 52 12
 1D 93 5C 29 96 8E D9 DF 4F 49 19 29 D0 58 01 25
 16 99 E8 51 E7 0F 1F 4F 86 87 66 2F B3 7E 1F 00
 2B 74 DC 00 57 76 5B 51 00 C5 10 B8 DB 9E AE 3B
 68 AF F2 3C AF 42 EC 25 E4 2B 1A F7 B6 12 9C 4C
 A8 BC 40 55 86 A4 52 4E 6A A8 52 18 A7 EF BB 40
 70 18 8A 80 0D 82 42 F4 ED 19 D6 62 4E 3B 00 21
 00 EE E3 52 66 6B 33 AE D8 5A 81 C3 9B FA CD 42
 79 AB E8 91 A8 61 45 83 1A FC D7 7C 5A A5 B2 B7
 D8 02 31 B7 BE 27 92 23 B8 E5 C0 C2 7A 78 67 1A
 C9 6A 49 79 5A C8 D4 C8 AE 08 A4 F4 81 D0 94 F7
 F6 D8 0D D6 19 19 D4 48 73 E5 FC F2 9C 82 D1 16
 96 C1 8B 6A B9 74 6A 29 19 E1 4E 50 E6 58 E6 6E
 77 82 F7 A7 D7 D7 B7 8D A3 50 14 5B 26 C8 F5 8D
 6E D0 08 82 50 D3 F0 DB 94 36 E8 B6 37 C7 E1 74
 DD 1F B3 9C 59 90 56 58 A1 E5 CB 6D 5B 01 D4 72
 84 2C 17 AE 11 BC C6 F4 36 1F D7 26 CE 73 8D EC
 B4 6C D1 5E C8 49 6F 2B 46 D2 B3 60 1E 3E E8 C8
 8B C7 5D 8E 20 A5 91 87 97 D4 2E FE 95 41 5B BD
 4D 0F DA 5F 98 B2 3E 9A 38 AF 9D A2 DC 73 A8 99
 9E 9D 9E 99 23 AF B3 8D F4 87 C0 9C E0 32 3A 56
 28 04 E6 59 40 C8 99 95 85 16 62 F3 1F 35 B2 88
 9C 8D 0F 14 62 F3 7D 88 30 53 3C 99 A8 83 79 67
 E3 0B 24 0D EA C3 F4 06 E2 E2 D8 49 C6 1D 4D 11
 28 F9 BE 60 CD A8 7B 00 0D DB 25 77 23 A3 1F 44
 B5 1B 61 0C AC F5 B9 13 44 13 70 31 8F 25 8C 83
 4A 16 BB BD F4 87 AC 5B 27 E4 BC D9 5C EA 52 5A
 98 46 63 2A 3E B2 06 97 FE 21 A6 A2 D2 35 EC 74
 8C AF C1 6E 66 45 16 ED 1C 48 17 E4 E6 DB 1F 58
 9B 4F A2 B6 80 89 49 7A 01 DF 3C 69 36 00 FA 1B
 97 DF C2 56 0A F9 DD 4E 22 45 BB 9D 11 75 AE CA
 21 76 1E EB 4F B4 EB BC 14 A6 BD 24 41 5C 15 86
 83 A3 47 EC FA 01 81 93 6D B0 16 D5 1F 4D 4E F9
 3A 09 DD A0 E6 4B 03 AC ED E1 A5 04 0E 49 84 32
 D4 DB 56 7F EA 2C 2C E5 BE 0B 8D 51 83 26 77 68
 91 6D 7E 20 95 14 5E 78 C1 BA 38 CF 15 CB 44 BC
 07 F5 1E 66 5A 8A 24 82 F4 CA 54 18 47 0A 7D 13
 64 95 33 CF 58 26 3E 96 C0 23 C8 68 95 39 2F D5
 CD D7 8B 99 54 8D 18 34 31 4B 07 36 10 39 20 6E
 FB 02 53 42 FB B7 C4 75 C9 8C 51 00 96 59 83 18
 09 E7 68 41 6A 2D B6 B6 72 8F F1 80 29 67 5E 3C
 16 20 A2 C9 3F 64 83 18 54 65 B6 57 88 28 78 8E
 E8 CF B8 DA F9 51 F9 08 3A 44 D0 12 2D D6 5A 72
 D9 30 0A BB 9B 38 67 97 C3 AE 59 63 09 01 0C 4F
 0B EB A7 BD AF C2 A4 0C AA 7D 64 69 5C 75 8B A8
 87 B5 E2 0E 9D 10 93 8F F4 94 8D C1 79 39 25 24
 36 B4 83 FA 3E 73 DB F0 00 4C CA EE F2 52 DE 97
 B0 12 AA 3B 0B 3A 7E 07 5A E2 62 C1 B5 15 DA 68
 5A 22 C4 4C A8 07 30 0D 31 AC 62 D5 A4 28 07 F4
 31 54 D5 12 B7 65 26 CF 37 DC E1 D9 4D 45 9C EA
 33 73 8B C5 F9 C0 1F 5C 39 F4 54 A3 AE 4A 5C E3
 1E 7D B5 55 A0 2B 17 6F D6 D8 1E BE 11 B1 F8 A9
 6F 03 67 8E 5A 41 9C 4F 8F E1 E1 3D 9E 98 87 E8
 01 69 7C A7 C2 74 CD 4E 1B 53 99 83 DD 5C 4B 44
 EC 82 E5 E2 9A DD C7 02 79 39 38 9B 19 AC 53 37
 12 01 AA B4 91 C4 CB B4 C6 BC 88 E5 7A E1 E7 B6
 01 F5 A9 8E 49 30 8A F5 3B 75 CE F1 40 E3 7E 9E
 33 F7 67 CE D6 62 48 57 E9 8C 4E 46 8B CA C1 2E
 F0 85 4C EE 5A B6 ED 9C 03 69 4D 3F D9 67 6C 4E
 B8 09 C1 23 C1 4B CC 04 06 86 53 E7 DB F9 B9 3F
 B2 C6 0F 5D 01 EE 65 8A 5B B1 51 9D 7B 8E 24 CF
 E9 32 52 B7 CE 26 CF 19 B0 A2 45 BD 03 B3 C0 38
 15 86 13 08 CE 6F 48 02 61 A9 CC DD DE 6F 65 E1
 1D 7C 1B 13 98 79 DB 45 C0 9E 48 2A 04 B3 D8 D8
 10 32 F6 CD E6 A2 57 F1 B0 36 A5 7D 2E 5C FC E0
 73 33 A1 91 9D AC AC F8 AD 07 F1 A4 21 F2 07 74
 46 3B 90 CB C7 4A A0 D1 36 AB 60 E9 59 F7 8C C0
 F1 E7 E5 A6 35 21 51 31 FD B2 8B FF 19 21 5F 56
 EC AF AD 15 28 C7 92 B0 31 5E 6D E5 4B 27 F5 49
 10 0A 3F E4 DC A5 F7 7E 7A FA DD 51 81 13 69 DC
 07 F3 B5 09 ED CE 48 5F 35 C5 0D 9F 45 F3 E2 4A
 02 5D 87 19 51 11 0C 58 AD 34 02 0A 73 A5 AB A3
 AF 88 C4 81 DB 0E 31 03 98 FF 54 BA 26 34 82 35
 38 E9 96 D3 D6 08 92 CA 6D 08 35 D7 F6 64 EA D1
 F1 69 DA 2F B7 6C 53 C3 1A C1 6A 74 55 1B 9B D8
 5A 1E 56 57 EF A9 AE BE FA 34 52 F2 39 DF CF ED
 6D B3 08 B4 AF 0C 91 C6 E6 0B DA 1C E4 A7 47 32
 15 A9 52 4E 11 21 05 86 6C 76 7D 65 AB 43 E8 41
 66 33 43 54 AA CC 7D EF 05 2E 3D 05 C0 2A AA 75
 4A 19 86 3A A1 D0 AB BE EB C7 28 E0 1A A9 AA 8F
 15 77 57 22 8D 2A 12 ED 20 AA 2C B8 30 20 DA 79
 AE CE C4 16 F4 6F C4 56 33 58 F6 E0 0A 34 59 11
 6C 5B C5 FA 85 7A ED 4C A6 50 2A DD 68 CE CD E4
 A0 28 F8 D0 07 60 52 75 C3 F4 B0 E2 7B DF CE 13
 3E 52 25 12 28 0B 02 4A 8B 9E 0C 81 9E 8A E4 A2
 28 C9 BA F4 28 08 BC AD 29 BA FF 80 C7 27 CC 29
 6A 1C 3A 37 B8 77 30 44 57 F2 88 FE C0 9C 6D 4B
 C9 67 53 2D 84 C9 77 F4 C4 DD EA 9D FD F9 2B 9F
 8B 06 96 80 EA F9 47 EB 84 11 15 2F AE 27 96 DF
 7E 08 E4 2B 12 A2 C6 23 C9 75 4D 97 54 3C 51 83
 E1 5B AB 6B 0B 20 46 EC D8 9F 91 56 3A 87 B9 4A
 11 CB 1D AC 94 F8 A7 A0 12 C7 0C 62 5C FC 9D B0
 67 D4 3C 1C 5B 03 F1 3B FA 53 25 16 A0 95 B2 3C
 91 82 2F 9B DD 6F CC 0F 4D 8F D1 8E 86 36 14 F5
 F5 BF D5 F5 D3 D9 6A 10 67 24 32 50 C6 45 99 E9
 60 1C 92 C4 5F 3B C3 35 29 4E 86 88 F8 7E 3D 0F
 C0 24 AD 2F 18 C5 38 07 09 48 7E F0 F1 C3 AA AB
 6D A0 CA 6C 75 F0 12 31 B1 ED E7 73 05 59 DF D2
 6B 2D D1 AB 85 49 58 45 63 BB 7E C4 CF EC 10 3F
 83 48 95 3B BB BB CE 42 88 36 0F D8 EA 59 36 3D
 30 5D B9 60 26 4D 18 79 93 36 BF 00 F4 65 58 56
 07 3D 1F 69 FB A1 01 C2 7D 93 CA 11 BE 24 F5 8C
 10 74 CF 89 6D 22 27 07 2B 5D C2 DF 5C B0 16 F0
 35 8C 08 68 A8 62 B6 FB BE BB 4C 71 0E 92 DC 3A
 21 C3 90 BD 5E A3 03 1E 65 EF C0 8F EE C4 CC EF
 32 FE 27 D6 82 F0 BA 0D 49 F6 43 45 49 68 E4 55
 4F 0D 3A 31 50 F1 5F 00 5E 2F 5E E7 40 C7 01 38
 81 18 BC D9 20 0D 53 FB 3F 9D CB 8E CF 43 AC D8
 BC 29 72 54 DD 2D 90 9E 28 14 73 0F D5 FC 4B DA
 FF E6 61 0A 28 19 9F 04 3C 2A F0 11 7D 48 97 F6
 E8 DA 16 C7 61 AD 4C B2 A2 30 1F DA F4 E4 00 4E
 6C 5C 78 70 E3 84 30 33 16 9E BB AE E3 1D 31 62
 E6 3C F5 F5 81 D3 46 93 5F A0 4C FE 89 C3 54 F8
 91 E0 6D 7B 1F 8F 01 BA A8 44 EC 08 5C 72 64 CA
 C6 DE 5C E4 75 1C 2F F3 2F 17 8D 82 DD A7 4A E5
 5C F7 81 DC EB 7E AF DB 39 B1 4A 30 A2 35 A2 C5
 F4 0F 72 F8 73 59 B0 DE 05 C0 2A 39 23 69 52 94
 2A 3E D8 FB 5F 35 34 73 22 25 DF 40 48 E2 E5 B3
 32 61 33 4C C3 FF 79 F1 F8 7D 10 E0 B0 F6 29 35
 31 2A E5 C0 EB 7C 92 C0 AB 6F 05 66 3A 88 FD C2
 7C 77 7D 9D C0 B5 E5 13 EB 89 97 C5 41 B3 AB FA
 22 90 75 C3 2A A3 19 D9 C7 6E A2 5F 11 E5 67 20
 C4 01 6C 3B 97 2E 2E AB AC 3B FE FB 14 74 6A BC
 83 1F E2 31 FD 7A 5B 97 82 26 F3 1B 84 12 22 4C
 A8 56 7C C3 D4 EF EB CB BB BB 5B 1D 03 70 08 17
 7D 0F DF B3 BB 45 79 F6 29 62 BF EB 7E 4A 1B 87
 7B 95 A4 8A 25 CE 31 6F 16 FE 01 C3 1C D3 AA A3
 FD 1C F8 A7 5F D4 55 AE BF 0F 9A FE B8 27 AF C4
 3C 5B 6D 41 7A A7 4D 77 05 A3 05 A7 AA 7B 40 8F
 9A 6C DD CB D0 AB E6 1C EE 75 46 DD 0D 00 86 43
 F4 9D D7 FE 41 40 E8 A4 A5 97 ED FF 7E DF 07 6C
 92 FE 80 E5 B3 AB DF 59 AB 91 FC 57 77 2F 8F 5C
 5C 6E E6 7A 8D 31 08 2F 1D 47 C6 40 48 AD F3 5C
 C6 72 F5 A7 4C FD 3E 10 4A 72 9A C0 8D 26 D7 85
 95 8D 5B 34 CB 88 06 D9 CD 6A AB 62 80 D8 C8 7D
 56 B8 B8 08 FB 2E 2B 4D F1 EB 27 6F 4B 59 1D F6
 71 F3 D2 78 00 4D 06 7E 7B E1 C4 81 15 29 E6 82
 E1 E4 66 D9 C6 C0 28 DF D9 24 5C 8D 18 44 13 B4
 F2 C8 32 65 47 DB B3 F4 22 05 EF 1D 49 5D 7E 97
 4E 38 73 93 AC F6 6C 7C 60 79 2B B1 1A 42 30 57
 59 A1 0D 74 FA 3B 61 DD 2B 7C 88 3F E2 AC 0A A5
 B4 99 0E BB AC 0F D5 ED 73 BB 03 81 B8 BF E4 0E
 76 73 F8 9D 80 7F 39 16 F5 A2 41 E9 EF 4F 65 4A
 49 9F A5 37 9A 60 7B 2C 47 5B 6A EF C4 FD EF 7B
 52 3F DA 73 D4 48 DE 70 C3 86 70 0C 3C F4 E3 19
 2C 24 66 E6 3F 0A 6F C9 B8 1D D0 B0 A1 D3 B3 CB
 49 43 81 F8 6D 6C 27 40 8A 41 78 0C CD 85 1E 24
 B6 4C 6D 16 72 D0 90 AB 43 BE 51 93 48 C6 14 4C
 1D 17 3E CA 83 5F 40 5A 65 F6 DF 03 E6 04 25 F5
 F7 CB 6A 57 62 8E 22 BD CF E8 DB 68 72 17 9D 11
 FF C5 8D 1C A5 B2 18 46 02 EB F1 81 3B 17 2A F8
 7F 4B 22 42 38 98 A0 F4 FF 7E FB 86 80 B2 30 CE
 2C 9F A5 F4 CB 24 94 12 4C BC C2 0D 4D 7C 3C 8C
 14 75 C0 10 05 0C 10 03 5E 4E 78 A2 FE 1E 9C 2C
 1F FC EE 2E 19 F1 29 FC 64 40 06 EE 69 1B 12 EA
 BF FD 38 57 81 1A 4D DD 5D 76 73 26 3A A2 1A 12
 3F 95 02 88 62 27 B0 C4 9A 32 AB B5 6F 20 E3 67
 43 44 82 54 33 87 1E F2 DE 60 FD 93 DA C6 C7 E8
 97 27 6E FA B3 00 60 0B F4 1D F6 51 90 E7 2F E7
 E3 59 3C E1 A2 AC 7F C8 E7 9B F6 36 3F AB 88 E9
 BA 8F B0 48 94 61 AB 99 43 B6 7B 77 8C A0 3D 9E
 43 B6 76 7A C1 3D 4A E7 68 D4 1A 95 13 19 7E 65
 D2 A7 AC 07 C0 6C A8 7B 14 35 15 42 63 42 96 2D
 72 9F B0 8A 20 5E DD ED 3A 46 05 C7 33 2D 91 54
 AB 64 3D 48 07 E3 D7 65 A3 7B FC 68 E2 EB 5F 6D
 55 D5 93 FD 9E C7 3F D4 FA 32 0E CB 37 09 2F AF
 3E 38 2C D4 FC 9C 0D 7F D5 E0 58 53 42 C6 4D C4
 0F 19 10 D0 C1 A1 00 61 63 99 EE D6 AB 5F DC 2A
 AF 95 B3 56 8A 46 62 11 52 89 EF 0E B0 80 FF 33
 50 D2 46 55 DA 17 F5 8D 0A 29 1E 9D 56 E1 2E 86
 8B F6 4A 59 30 97 50 75 A5 AF 8A 94 9A 45 61 54
 2A 70 30 01 21 42 35 B5 93 9A 72 68 8B C5 39 5B
 D9 5C 6D 1A E9 1E 1B 5C 65 17 55 CB 5F 7F DD 28
 6C 60 31 A6 2C 08 44 3B 9F D4 0F 37 42 96 7C AB
 3A 49 AC D8 C2 EF 83 3F B1 E7 5A 83 34 26 69 B7
 E2 46 16 88 58 84 06 A0 63 F3 96 74 0B A2 E8 11
 D5 08 18 AF 3C C8 66 A5 D2 B3 CC B3 AC 6C 06 7F
 37 70 F3 A0 D9 D8 C5 EC CA 0A 1B 01 C9 E0 99 FD
 65 2B 02 6D E5 CB 0D 47 BE BB C0 03 CD 1F 7A B3
 DB 36 64 91 7F CF F8 8F 31 FD 05 0D 83 C2 D6 1C
 0A 34 06 B0 EE A4 53 66 71 67 B6 98 64 14 F1 9B
 54 9F 26 4A 5D B9 73 43 57 65 01 2B 5B DF 20 36
 8B 7B 59 9C 91 B2 94 F3 14 57 23 0D 29 30 3A 5C
 F1 D7 C1 1F 0D DC 6C 67 91 36 FC B8 39 3F A3 2D
 25 21 55 51 0A 15 F7 D0 17 1B 38 37 30 63 79 47
 0E 6F FE 73 23 E5 0C F6 6E B9 4F A3 15 6C 6D 9C
 9B 47 4F 08 25 86 80 81 C0 44 1B A0 8E C8 BB F5
 27 0F E3 B1 C9 08 47 30 E1 F1 5B A6 28 28 DA 64
 E5 46 9D 69 C2 5C 7B 08 3F 02 A4 99 2F 77 62 62
 22 38 71 DF E3 86 3D F7 91 99 9F 83 06 D1 68 5E
 68 B4 D2 F3 84 3D DD 70 0E 71 7D FB 98 64 76 97
 93 95 8D DE AD 5A 19 6B 0E 4A 7A 70 AF FC EC E3
 96 9C CA 06 B2 1C 21 4B 82 98 D3 05 F6 BC 28 FA
 59 C0 A2 DE 1C A8 62 86 98 C5 BA 99 71 BA 2E F0
 58 A9 30 06 4B 0E C8 A5 29 2B 75 B4 EF C8 E3 96
 3D A2 09 FD 81 25 25 C8 AA A1 C9 68 57 A9 D4 0A
 1B E9 71 49 7F 8C 7F 98 B3 8C BB 50 B9 76 A0 4D
 A1 55 17 0F FD C8 9F B3 42 92 DC 7A D1 63 9A 74
 96 58 7C 7C C5 90 36 4B 6A D6 22 C3 F4 E2 3A 34
 4D B4 29 9C 75 1E B2 4A 75 32 11 30 5D 6C 2D 52
 F8 44 76 8C 8D 79 50 6A EA D6 F5 83 58 0F 32 47
 F9 EA AE 84 E7 74 4C C3 34 94 70 BF EC 96 8F 17
 A8 6E 39 48 5C 80 A4 BC 0A AD AE 50 D6 A2 6C 33
 4D 0A 10 02 E9 EA A2 0C 13 25 BC 0D A5 6A 1E 52
 23 EC C5 9B 0C 61 B1 10 7E D2 9F 6F 95 24 C7 97
 F8 79 F8 14 78 55 E7 5B 0F 21 A4 49 57 98 10 59
 DC DC 7A E9 2C 36 54 A6 EE C9 A1 D1 46 5B 18 D8
 E0 07 D8 0E E9 54 44 CE 5E DF 49 78 E2 31 51 75
 3E EA E3 3A F7 5E 17 47 30 2D 48 EA 42 7B BC 71
 A1 7F 4D 87 04 95 3B 88 50 93 DA 8D 80 EB 8D 2E
 EE A7 C5 2A 6A A3 F3 C9 49 53 29 0B 01 D2 25 B0
 5A E6 3E 8C D9 BD 8E C9 5F 40 9F 3C 67 A1 C7 E8
 B8 91 D9 9E 13 B7 C8 A1 FD C5 5F 96 8F 05 52 24
 BD C6 A2 F9 14 0D 87 78 9E 66 75 88 D9 0C D3 B7
 93 EB 11 C9 3A E2 80 71 96 41 18 48 84 2B A5 0E
 C8 89 6C 81 0E 8C EA 53 8D 59 7A 26 47 87 2C FE
 F3 03 D8 66 70 18 6B 38 CB 75 8F 3C 14 6F 33 A4
 2D BD 64 80 0A C6 C8 29 56 D7 A7 C5 41 AF AA 7A
 1B F9 E2 8E DB 26 01 84 10 88 F0 0E 0D 68 F1 B2
 C8 67 43 9A D5 52 3F 95 2D 87 F8 89 13 76 D8 6F
 C7 78 71 68 BB FF 72 A3 05 2D 00 5B 8B 46 82 E5
 18 36 39 09 EB 16 8F 89 BB D5 4D 3E D8 48 CB 7C
 01 C1 56 24 76 E3 32 FC 64 2B 67 30 D0 E6 4F 2D
 96 DE 36 8A 25 2B CC 2D AA 2A B5 F2 67 05 AC 61
 49 FF D7 AE AC FD 10 55 E6 E0 B2 6F F6 3F D4 02
 80 F4 18 A8 70 84 32 17 B5 EE 1A 81 1D A1 97 36
 A9 09 EC 96 5F 44 56 69 5C 5E 5D 0D 65 2F 3F A2
 27 58 14 2C C3 C1 88 B0 25 4B AF 16 8B 0D 09 98
 50 20 2A 6C D4 BA 9D 14 96 22 0B 72 32 65 94 25
 39 3F 41 59 B4 4D F2 99 F7 33 F0 B1 30 47 A5 A6
 F6 95 F1 B8 33 BD CB E5 43 47 B4 DD FB 94 94 37
 7E 69 6B 0F 58 FA E3 0D AA 84 79 89 9C 11 63 1C
 AD 45 7A BB 85 05 3B 3C 47 B4 33 9A 5E E7 0A 29
 BB 40 2B B5 49 03 28 11 7D B9 06 6B C0 07 28 3C
 5A 7D F7 08 78 4C 1B 15 93 01 BC B8 7A 4E BB 90
 A9 09 6E 53 4F 85 C3 85 55 C0 48 94 FE 93 87 0C
 BF FD 57 19 48 80 60 17 F8 45 2A 43 D9 30 A5 CF
 00 06 89 BC 6E 3E 44 0C A6 0B 87 41 F8 1D C7 A6
 77 4F F4 8B 47 AA 26 87 FE 5C 9C 3B 65 DE 8A 30
 80 80 CF 3C 40 2B CD 79 C7 A7 3D 7B FF A6 2B 15
 60 FB 0A E9 A7 4B 31 71 44 EE 69 88 E3 93 B6 95
 B3 1E AD 53 7C 57 53 D0 37 6F 7D 87 B0 92 5C 7E
 4B CB E6 D5 38 07 87 C6 9F 69 35 7A 23 05 80 45
 56 B2 07 FB 0C A8 02 85 09 03 B3 8A 1D C0 3E 78
 8E E5 05 6B D6 6E AD FD B0 9B 87 13 38 5B 7E B1
 C4 F5 1C FC A4 13 CC 3C 3E C6 88 34 9C 8E D9 EE
 F5 30 D6 56 E3 08 30 4E CE 1D 4B 7D AA 31 29 55
 FF D0 F9 56 A0 86 9C 87 65 69 39 51 29 20 09 AE
 97 83 52 D4 D7 51 55 24 11 4A 93 32 C4 DD 60 5B
 12 59 2D 1F 6A A9 5A 2F 96 79 93 1C EF 8A 9F 2A
 7B D1 2E C2 B3 31 F4 4D 18 2B F8 DB 93 95 12 87
 E8 12 2F 91 FD 94 A3 07 64 42 CE 61 D3 74 79 2F
 A3 5E 99 A3 87 8C CC 02 F9 17 F2 52 6B 1F AD 35
 0B EE 53 DA 01 04 E7 89 B3 9F 37 AF 45 E7 CD FB
 C3 97 3A B9 F9 7C C7 F3 0F EB 0D 4F B6 B6 89 EE
 D4 E8 8B 53 3B F8 66 67 0B 21 F8 67 04 82 23 65
 72 51 1C BF DF 40 0D 35 B5 EF 2B EB CD 8B 1D 8B
 59 13 A7 AC 1A 88 0A D6 86 45 06 DE C9 99 B6 22
 37 3E 46 DF 4F 84 9A AE C0 E6 0D 0C DB 83 B6 4C
 D0 57 34 14 F9 0A 58 DE 10 CA 47 35 EC 0E DC 8D
 BE DE 83 61 4A 52 57 73 F6 A3 0B 94 E8 4E B1 20
 BB FD E8 5F 86 89 5E A9 B3 7E 22 AB B1 60 41 63
 64 E6 3A 7C 2F 90 43 23 0A 02 32 E4 2B 5B DB F1
 70 D4 BB 7E F7 31 6B 81 DF A4 A9 2C BE B9 1D 65
 9C 67 4E 71 5D EF ED E8 CF FF FB F2 0F FF EE 8A
 A6 9D C4 34 7B 6A 78 57 73 4E 7C D9 79 20 D9 2F
 AE 8F 94 C5 14 9A CC 3E 52 0E 2B 68 07 3A BA 15
 00 B1 A9 71 08 33 B5 B4 E4 D0 01 8F 90 82 3A 1D
 AF 67 B7 02 61 EF 70 6D 0F E3 26 DD 36 4C 1E 4A
 A7 7C E5 07 26 75 A3 E4 D8 DE F0 C1 D5 80 49 CD
 11 31 0B 3F 18 57 65 3C 4F C1 AF A2 40 8B 60 E7
 7D FE FA 89 3E 25 17 D5 F9 28 46 53 C1 CB DC 16
 02 17 6C 59 67 32 CA 9E C6 25 2A 64 AA 1C F4 31
 CB 2E 18 7D 18 D1 AA 63 F1 FA 5C 85 5E 43 55 99
 D3 AA E0 02 0B 6D 5F FC FF 45 BD 18 27 AC D9 65
 AC 21 AB 1A 35 EB DB 3B 39 58 F6 FC B5 40 B6 F4
 84 A6 98 38 BE 96 EA 91 E0 A2 08 D5 56 A4 D0 50
 15 59 73 EF 4E 6D 0C EA 9F EC 93 71 7A 2C 2D 7C
 02 C3 86 A8 85 63 F0 C7 85 51 92 99 38 2A 6E 50
 FB AF 02 BB 5A 0E 56 D4 59 F3 2A 3D C9 01 DD 82
 FB BE 52 DA 90 04 3A A5 F9 0A D0 8A 11 7F 35 0B
 2D 72 04 52 A7 2D 68 09 1B 5E 3E 41 8B 7D 09 4F
 BE E0 BA B0 84 0B DB BE 60 2B FB D0 71 CA BA BF
 18 58 E3 3F BE 35 99 F5 F4 35 CB 39 6E FD A3 0B
 6A 0F C9 CE 47 26 F3 2B 2B 53 64 4D 0F 39 8D CA
 EA C1 6F D3 6B B9 71 40 C9 39 35 8F 50 8C 70 BC
 1A 52 F9 53 59 04 83 F4 D6 61 A3 3E DA 1C 86 F5
 F2 E5 0F CC 0A C7 BC 9D 62 E7 A0 90 42 57 60 A7
 6B 8D 73 7B A2 60 00 97 73 9D 82 14 19 27 BF D0
 2F 93 47 75 62 F9 AC 6F 98 CE BC 94 80 4E FB F5
 1F 4D 57 F2 01 8D D8 D4 A7 A3 38 A0 BB A2 AF FF
 F6 AD 3D 04 A6 B9 F7 CF DA 02 AB 63 C3 08 2D 56
 71 FA F6 37 0B 65 74 B0 80 CC 15 76 19 F6 C0 7A
 52 8B E8 A8 58 EA F5 14 4E 59 B0 26 2F EE A9 21
 98 7E 6D B7 F0 EC E2 88 3C 48 FA 46 EB C0 2B 36
 06 99 6F 6F 4C C1 E8 BE CB 50 AD 24 28 B8 0E D0
 2E 4D 45 9A 5A DC CD 6B 76 95 44 36 DA 10 82 2B
 69 A2 E4 F0 F2 EA D3 34 22 47 64 03 34 CD DC 4A
 5B A6 85 C6 5D ED E6 7F EC D8 56 4C C2 85 A8 88
 65 EB C6 F6 F1 E8 A7 F0 9A 39 B3 CC E8 6E 47 98
 CE BD B5 E4 46 7F 66 69 6B 78 6E 2F CE E7 22 4B
 55 E9 F6 EA C0 1A 11 67 C5 14 D5 07 15 51 03 53
 6D 83 78 16 42 1A EC 3E 1C 02 33 2D A9 1A FF 32
 B3 D6 B6 7B 86 B2 AD 83 7B 21 2F 61 04 F0 52 07
 52 19 2B 47 54 AB 2F 25 80 9D 62 7C 70 F1 16 42
 77 1D FC 63 FB 61 67 B8 93 6B C0 2A BD 14 EA 5B
 4C 47 6B 8E 8C CB 31 A5 FE 67 90 A8 DA 98 C5 7C
 E2 87 C2 A4 9B 8C C4 77 0D 58 E5 E3 C2 51 D2 C3
 EE EF D6 F3 0B 4D 47 D1 F6 6C D4 84 B0 9C 36 94
 52 DA DC F3 65 13 E0 B7 F2 1F 6A 3F E6 43 43 A8
 11 E2 85 48 4A 52 01 EB 45 5B 24 C4 FD F2 19 8E
 D6 4C 68 9A 9F A5 F1 D3 70 1B 03 AF DC 4E A4 88
 64 C7 EF 6A 1B 54 25 FC 22 41 CD AE E6 62 22 DD
 D8 F6 BA C6 A2 81 1F C9 63 B3 4A 3F 3B 47 CA C8
 FD DC 17 78 59 9A 45 E8 E8 BA 80 13 34 F5 48 B9
 3F 13 83 EB 74 01 F3 D1 A1 82 E2 48 31 02 CC 92
 D5 BC 3A 60 C3 15 C7 5A B2 F7 BA 7D 16 51 D4 91
 56 50 36 1E B3 B3 49 76 F7 1E 96 C4 EF 0E FD 96
 03 1F 7E 3C 0F 82 92 1C E4 84 FD 9F 19 D4 B2 66
 B0 F1 48 EE A0 B1 47 74 0D FC A6 DD 64 B2 09 3B
 36 D3 30 6F AF E7 E2 43 09 CA 3A 07 D1 B8 69 85
 26 B0 B0 68 68 D2 7C 38 56 63 6C 2B E7 5F 1D B3
 85 F1 EB 1E C1 CE A3 92 FB 80 7A DD 88 58 41 21
 6A 18 34 6A 55 CC F6 60 F1 CF 8B 62 83 DF 18 5F
 80 26 8C 44 E6 F2 11 ED E2 89 22 B8 4A 45 EB 02
 92 06 69 3D D6 EA 3A 5A 83 31 97 73 A3 9D EB 19
 48 B6 8F 23 34 AE AA C1 CE 09 27 DC DD 23 29 AF
 59 7B DA BC B8 FF C5 4C EF 84 78 8F F6 4F 3B 69
 B7 75 DC 4C EB 30 BD F7 45 B7 8A F5 85 D1 5C 73
 73 09 18 AA E9 3A 23 EA 07 D0 24 DE 4F BB EE FF
 15 9E 2D 65 6D 69 C4 A8 0C BE 11 4C 4B A2 09 09
 18 87 4B 74 C8 80 3F 7D C4 55 71 5D 9B 5A DB 20
 08 33 47 A0 B0 0C 14 2F 19 D2 36 24 60 42 FA 1E
 8D 83 6D A3 5D 9D E7 93 CB 80 AE 5F 18 50 1A C4
 FB 34 C9 02 01 7E 21 B7 82 40 46 5B B9 45 59 C4
 29 8A 25 4F 13 E4 69 EE C3 55 46 B8 BA 5C 71 CE
 7E 99 A7 11 F3 04 BC C6 EC BE EF 67 F1 4B 81 4B
 CD 3E 8F 5D 6E 35 0C 91 5B 8F 1A 4B 50 D8 47 AF
 47 04 CC 4E 64 DC 48 66 BC B4 02 0B B4 F7 3A 55
 7E 58 F8 05 21 27 AC 0D C6 13 9D 57 6A 51 91 54
 0B 86 3A BD 56 FA 4B 9F 64 6E C7 8B A7 D1 FC 50
 2B E6 28 B0 90 AA 77 81 B8 BE BB 0B 35 E6 D1 57
 21 0E 36 D1 69 3D A5 FD 70 0A C5 F6 22 2B 8E AA
 0B E6 6B DA E3 61 D2 4F 39 47 52 90 1E 43 BA 37
 8D F2 5C ED 59 3F B3 7E B3 20 17 CB BF 41 35 9B
 BC EE A5 77 EA 43 E9 DE 7C BB 09 D3 9F 7C 4D FE
 DB 9B 32 1D F7 19 5F 33 FB 50 18 92 AF 8A F9 08
 74 50 E2 AB 62 F9 97 FE 6A 16 0C A2 45 C6 A4 CA
 82 E2 27 54 94 3B 34 05 56 43 8C 84 AC 9C E8 31
 D6 78 08 0E 4C CA 78 55 68 DD BF 48 79 B4 34 87
 5F E7 B5 C8 68 97 48 65 70 EE B4 F8 55 00 1E 03
 9F 5C 08 93 B1 9B 92 FD 2F C9 B5 BF 49 31 B4 3D
 36 AF CB 05 75 7A FB 95 8B B7 57 D6 40 79 BC EF
 20 14 02 AC 23 80 7E 41 16 39 F2 78 BC 9B 77 7D
 3E AA 39 1F F3 A3 50 D2
* End 1796192317 3011926004