* LTspice Encrypted File
* 
* This encrypted file has been supplied by a 3rd
* party vendor that does not wish to publicize
* the technology used to implement this library.
* 
* Permission is granted to use this file for
* simulations but not to reverse engineer its
* contents.
* 
* Begin:
 09 54 8F F3 AE DD 1C BD 88 20 40 67 82 3B DE BE
 B5 5D 5F 19 3D 59 A4 D3 12 86 B2 B5 F3 CA 2F 6A
 7B AF EB 32 7C 62 9C 7A 85 D1 0B DD BC 85 9E AD
 F6 CC 65 1E 32 EF DE C8 A2 B7 10 F7 A2 42 99 64
 0B C6 CF EB 8C 1D 3E EF 88 C4 0E 70 87 62 46 13
 2D A9 8D 2A B8 5D 69 7A 72 9E 51 EF 87 0B DB 4A
 1E 6B C0 2B DA DD 95 AF 6B C6 54 CA 48 86 E3 65
 C4 61 0A 20 68 AB 9B A4 C1 70 58 5C 37 F9 DE 1B
 6A 8A F7 A3 1D AE B4 53 48 76 9E 4F 30 DB 44 56
 FB D5 7D 94 27 62 22 BC 16 8F 3E FE 32 6B C5 6C
 42 53 F9 F9 ED 64 D3 3F 86 7D 1D 7B C2 07 7D 34
 0F CD 69 74 82 71 CE 89 76 47 14 46 F2 C9 49 16
 5B 42 8B 29 D4 B8 01 7C 74 0B BC 78 36 04 E2 3F
 1C FA 9C CE 85 EF 89 DC 54 CB F1 39 5A 4C 53 E4
 CE 99 84 CB DF 5F E6 CC 1C 42 D2 39 C3 EF A1 9D
 23 D0 18 07 F7 9A DE 58 FF 67 96 CB 6A DC 3D 7B
 8D AA 47 F2 15 3B 0E 67 D5 91 3B 4C D6 12 71 0C
 21 CC 5E 7C 89 F4 48 F5 A5 7A 9A CD BE 14 3B 73
 9E 18 33 91 92 2C A6 6A 22 17 F2 72 F1 3A F6 94
 DC E4 40 71 09 CA B3 A4 D1 B6 4A E9 AF C7 AD A2
 3F AE 64 3F F3 C6 8A 22 F7 41 3C 19 8C D8 17 3A
 28 FA 0C 00 0F 67 3F 04 45 5A B0 F0 57 D8 E3 05
 DA 64 B5 44 3B D5 7D 5B B7 9E 75 DC 32 3E FF B9
 21 C0 13 CC 6A D8 2A E3 93 62 F0 45 57 B6 3F F4
 6B 46 DE B9 41 04 0D 95 06 67 B3 AA A9 9C 06 CB
 57 3B 3B 96 81 E1 0E 73 25 71 9B 7E FB 63 A5 0D
 46 6C 04 88 A9 5B B7 D2 CF 81 67 6E 58 C0 6F B7
 A8 AC B2 80 BB 39 0C CF 06 E8 80 0A 8F F5 38 B9
 2E A7 37 E2 96 6D 32 DA E8 21 74 74 15 22 23 BF
 F9 2C 92 C0 E9 EE 5F 99 A3 23 62 BC 61 80 F6 00
 64 AE 40 3D 01 4E FE E3 E2 B1 37 08 98 45 2D 05
 F5 0D FF F7 63 BC 7C BC EC 80 24 92 13 42 F1 C2
 B9 69 50 85 AD 41 1E 10 C1 E8 4E 8E 9C 26 9E FA
 95 F5 82 51 CF ED 31 83 47 50 58 56 A0 16 14 B6
 53 38 98 9A B6 93 B0 22 80 C1 71 72 54 33 81 37
 78 E3 75 6E 5B A3 86 BA 14 6B CF 1A BB BE AC EF
 23 52 39 8D 16 C1 6E 97 80 63 6C 27 2F A3 0E 10
 BB D8 D8 4B F8 10 2D 1A 5F 88 80 21 C2 74 A7 03
 9D F7 1C 09 25 73 C7 E1 28 D2 18 60 E4 03 18 0C
 E0 D8 4F 24 23 2A 11 45 B3 FE 41 95 AF C0 5D A2
 26 6F 1C A4 4A 4E 79 4A 17 9B 2E 37 B6 44 D8 D9
 04 B1 45 69 E0 BA 73 FC 52 16 0E BD 6F 10 1E 77
 CF 95 79 F9 DD 49 2A 56 36 AC AB EE 3E 15 AA 07
 F1 C8 AD 5D DE CA 2A BB 26 B3 9C 36 53 CB AB EA
 16 94 76 8F C5 CD D1 CC F2 5B A8 39 3C 04 40 3E
 DA 44 39 DD ED 84 3A 08 C1 53 9B 77 2A D4 39 16
 A4 A0 C5 0D D2 AC 0C DA B2 D1 9A 90 BA B7 9D 81
 7A A0 D4 24 02 8E 87 04 D7 87 27 5B 72 C7 C5 5D
 3A 90 22 5A C0 3B 67 EC 42 35 70 50 80 0D 40 BA
 19 38 D1 22 24 24 00 6C F5 0C 44 5F C2 1B 73 FD
 3D EC 5E F4 02 54 52 8D 81 1B 52 D9 93 6D B1 5D
 C4 BB 31 AB 23 B2 FB 0F A7 66 7F 4B 80 08 49 2F
 2C 3C A7 3A 2E 27 00 46 EE E4 D5 AC DC 27 10 D3
 B8 8E 26 6A 4C 3E E6 96 33 A1 9F 29 CD 19 2F AC
 C5 7F 9A 3D 2F EA 80 FE 4B 91 6F 32 2E 8C E2 16
 16 33 DB E9 ED 3D EF 83 1E 30 33 D0 9C 7A B6 34
 F4 EB D2 CC 9A AE E0 89 E5 19 2E 56 E1 2F DB FC
 45 FD B4 6A 07 27 6D 0A 57 1E 58 4F BF 86 25 EA
 35 82 14 84 1E B5 E7 04 77 54 0F D1 B2 3F 90 7B
 66 99 E5 43 8F 63 C7 CA 1D 23 55 88 A8 89 57 56
 92 58 D3 50 57 7D C8 A5 CF 95 7E 40 BC 45 9C 1B
 B8 49 69 77 8B FA 9F 47 2E 00 82 0D E8 09 8F B9
 ED 2F 09 0A EC C3 6E 70 CF F2 E8 F4 58 03 61 BE
 7E 4E 11 F3 E9 A5 5A 87 BA A4 46 F6 7B 80 AA 33
 2D 6B 14 ED E6 35 26 5B 3B 72 C3 B0 C6 52 87 6E
 56 29 ED D7 55 FF DA B4 3B 04 C3 11 E1 81 FC 15
 02 62 81 21 25 FC 7F F5 61 7C 62 90 F6 23 F8 7E
 9C D0 34 CD B3 93 26 BE 5B CA DD B0 AD D9 29 1E
 5A B6 4F F5 08 14 AE 22 4F F8 04 C1 83 BF 8F D8
 36 50 9B F2 66 2B 40 63 5B 77 52 58 C7 EB 5B FC
 D4 78 38 AC DE CA 8E 8F 5D A3 E0 45 E6 8D 94 A3
 CC E8 14 38 7E 13 08 45 F2 C0 5B E2 16 F6 E2 DE
 10 2F A3 42 8D D7 93 02 92 4A CE D5 D8 A8 27 C0
 7B 58 55 ED E9 C8 7F C1 D7 BA 57 5E B3 9C 85 AE
 35 57 8C 52 1E 63 EE 4B 2D 01 96 FE 11 E0 1A A5
 EA C7 6B F7 9A 89 0A EE F3 29 09 97 E7 9B 08 31
 87 D8 AC 08 F9 8B 4E D9 7F 1A 4E F5 A2 6E 59 39
 12 F2 0C 38 FE 8E DE 1C C1 2B 86 17 15 8B 1B 68
 AB D4 E6 F1 89 9F 47 3C 20 79 49 15 5B 0E E2 2C
 7A 35 6F B4 76 7C 2C 4C 7A 8A C9 D6 AD B4 6C 27
 DA 2C A4 10 CD A2 E8 58 48 DD 4D 85 E8 09 80 18
 D4 A3 DC F8 09 30 10 27 85 03 2B 9D 99 C2 3F 5D
 E6 CA 5F BA 34 A3 B3 14 50 D3 A1 13 39 04 C7 AF
 1B 57 38 91 EC 7E 77 15 81 AA 8B BE 60 14 34 CF
 E2 AC 3A BD 48 4C 62 30 A0 0A D7 A6 CB 05 87 B5
 7C 2E 18 98 ED 39 66 71 75 41 CA 29 AD A9 BA B2
 6B DD E5 1F C0 00 16 81 1F 56 DC 40 CA 84 3F 3E
 C8 CE B4 39 8E D3 5F DA FC 2D 22 29 48 73 56 D9
 D0 ED 09 01 2A C5 5C 83 73 5E B2 14 86 F0 99 38
 DC 8A 1D 3A D2 6C 12 E1 07 9E 64 B2 E3 45 EE 1F
 D4 EA 0D AE 4D C6 4E 92 5C 7E 92 E1 33 EA 32 E5
 29 4D 9A 0C 89 A4 D0 EF 7C 3A B1 D0 B1 2B 7D FB
 F4 65 99 1C BB EB F0 41 D4 42 CC 22 33 2B D7 A3
 12 DE 72 15 A7 F4 B9 AC AB 40 AA B1 0B 53 16 5F
 45 BB 38 81 98 68 D0 E1 F4 64 54 95 13 09 0D 19
 A6 59 49 46 C9 08 70 B1 52 6C 01 7D C5 D0 27 6A
 A5 53 8E 46 FE FA 80 01 60 0A FB 92 33 29 54 28
 3B 5F F3 D4 CF C6 66 B4 AB C1 2C 16 3A AD 9C AF
 58 FE 35 36 1E 5D B0 B0 0B 57 40 1D A3 2D 38 E3
 E3 B7 26 1F FC FD B3 79 55 A6 3D 34 0A 29 0C C2
 28 1C 3E 2D 59 1D 95 35 4C 34 87 6D C6 96 6E 9C
 CB 97 C1 99 0C 22 1D 04 91 AA 19 E6 06 9B 32 58
 6A 5C E3 12 04 08 B0 01 41 C4 B0 61 00 CD 19 ED
 64 68 47 1C 03 ED 60 47 A2 D5 BE 00 B9 E9 55 18
 E4 65 E4 F6 85 14 2C F6 14 FA 87 9E C7 88 63 42
 CE BB A5 A0 D9 1F 7E 31 AC 68 6B 3D F5 D9 9A 28
 7C DE 1B BA 25 CD 3C 9B 62 C1 24 19 7D 01 AA 74
 35 52 38 E6 3F 88 7A 14 63 17 57 AC FB E5 1F 4C
 C2 7A 73 25 7B 99 9A 88 E0 F1 75 76 AE 8E 95 BC
 AA A4 8C 57 E3 41 70 43 12 59 F8 47 0C DA 39 7B
 35 3E 2E 40 5E 53 04 3D EC 35 9C FE 65 DC 11 BD
 FA 63 9D 1A 16 53 91 03 84 EC 34 DF 40 A3 2E 86
 2B B8 CD DF E0 F9 4F 32 12 72 3C E4 71 7F B8 A4
 04 1F 5E 4E E9 7D 17 E9 9E E0 0E 2C 76 55 81 4B
 60 23 76 98 F8 3B 05 B5 22 27 F9 2C B1 51 CE 0B
 28 14 6D FE 81 4F 73 D9 34 3B 49 CE 75 28 6D A5
 0A B9 C2 24 4E 51 88 65 EF 12 E1 A9 90 6C E4 7E
 4D A3 2E 84 BB 7D 17 15 DA B6 22 AB EF 1D E3 11
 56 C7 16 59 5A BA D0 2B 86 BF FF 49 FE A5 37 28
 5B 58 6C 19 18 FA CB BF FA A8 04 59 91 49 52 0B
 92 DC 63 82 DF 06 3E 48 73 E6 02 0C 4C CD E6 55
 81 C3 80 D4 CA D5 78 87 72 4A 10 D8 BD 79 2E 6E
 B6 02 8A 57 91 7E 6A 94 7D 4A B4 B8 4E B1 5E 33
 B3 1E 8B 1F 10 28 DB 94 22 C8 FF 45 26 E2 39 D9
 06 17 FC 71 EC C0 8E E8 6E FD D4 02 CB 70 32 51
 4E 23 55 45 41 32 A5 84 74 0D D7 37 39 52 D6 CB
 D7 93 35 0C 54 91 36 8E 80 61 D3 A3 D3 B8 5B 4C
 38 2D 0C 07 77 B8 72 C3 D1 92 97 DE 19 73 1C E9
 53 E3 C0 E4 14 D1 87 9A 37 55 75 85 3C 47 A2 C8
 14 D9 0C 7E 4B 56 06 A3 5C 5B 6D 9E 7A B3 A8 16
 C2 6D 57 CE AE F3 16 A6 BA 85 B5 BB F6 46 43 EE
 35 58 09 AA B5 D0 1C 6C 90 F5 43 BB 28 6B F0 90
 1A F0 E4 72 6F 1F 8E 8F A9 5A D4 AE 4A A1 B7 C2
 96 9D F3 B7 26 82 91 18 33 C6 50 FE 93 F0 DE 3C
 5D A2 6B BC CB CA 11 B1 15 4B 2E AF 52 92 71 71
 7A 27 9A 2A 76 5E 4B 63 AB EB FC 7B B4 55 B9 C6
 58 33 BB 85 FA 92 1F 8C 9B E4 3F EB 28 92 A8 34
 BC 7E 2C 55 37 A3 F3 4A 17 9C FC AF 88 E4 97 08
 8C 2C 5B 5F 84 3C D3 2D 8E F9 DE 5D DA 6A D5 C9
 22 AE F0 C1 E6 24 7F CB C6 9F 85 56 E8 FF CE 71
 19 1E 68 2D 79 47 FF 87 6F 24 9F 88 9B 57 EB 8F
 2B 2D 55 FC 52 92 FD 43 B2 55 E8 A2 19 B3 3C 68
 46 ED B1 E6 45 6F 73 66 B1 F6 23 D7 67 68 DD E9
 8E EC CF A8 7E 0E 0C BE 65 71 55 57 B3 75 CE 8F
 91 B3 AF 18 12 8E CD 04 73 96 42 40 FB B8 80 E6
 93 A3 85 5E BC 1B 36 34 0B 67 BC 03 BE 6A 7C E5
 7B 68 57 52 1F FF 57 9B 1C 74 23 A7 1D 45 3D A3
 83 0D 81 42 A5 AC 6C 98 1C 61 D6 75 37 CB E3 28
 7B 8A 1C 03 C2 C3 95 81 BD 35 F6 09 D2 77 EF E6
 89 AC 65 F7 82 48 5E 6B F5 D4 95 B2 3E C9 7F B3
 FE 73 BA 95 A7 7D D8 64 7A 32 2C 5D 2E 4D E5 31
 FE 25 88 35 10 F1 19 B2 36 6F 6C A3 03 AC E1 69
 9E 8F BF 26 BF 56 A4 4D 54 E9 C2 8E 14 88 33 81
 6B EA 78 35 9D 6A 20 E9 E5 EC B0 9B 40 B2 94 04
 87 FF 0C 67 AA FB 4C 24 49 12 FB EF 65 3F 83 ED
 45 43 74 BD 45 0C 1A 96 EC 6D 29 02 EE 48 E6 8B
 32 88 EC 03 78 D1 B3 A3 30 68 67 65 E9 12 B1 5E
 5A 00 1A 2F 54 AD 15 5D B4 6C 92 BC 43 C1 3B 10
 B4 09 3B 3E 3B 16 11 1D B7 A7 98 B5 26 D8 42 92
 D2 17 6A 6F AB 7B 36 E4 2A 2F 0A 90 B7 9C 2C 2D
 04 17 C5 44 BB 0C 79 6D EA 81 4C 13 7E E4 F5 2C
 14 00 EA 79 5B 42 34 B8 B3 FA 0C 58 C8 BF 25 B0
 4A 17 D9 CF D8 E2 2F 39 E2 3C 7E ED 0A 89 87 73
 EA 33 45 8A 54 81 98 7D 7C 1D 10 30 2D 62 13 20
 E5 EB 86 7E 2D 6A 66 CC 36 AA E6 34 E2 14 92 F4
 9A C1 08 25 F0 58 70 CB 7C 22 D9 59 07 E1 37 CA
 2C 94 A3 AF 2A C8 53 CB A9 91 82 66 33 56 CE 5A
 1F 6B 6E 9F 5C AE 4E 2B C5 A3 11 52 B4 A5 51 58
 35 B9 C2 63 B0 F8 76 6F 39 FB BA 68 A6 B8 9B F3
 06 BB 2D 76 F4 8B 95 5D ED D0 2E D3 07 74 9E 4F
 C3 78 5D AC A7 68 FC 8E E9 B3 A6 10 7D 83 76 BB
 EE 15 24 6A 0D 42 24 C7 D4 68 04 69 5B 3B 5B 7B
 F2 27 49 8F 52 24 3E 57 0F A3 BC 14 34 D7 96 B4
 B9 01 32 F7 02 90 A0 A3 62 0F 24 1B F1 82 AD 34
 CD D9 7C 4C A0 71 FB 74 0E 33 5F 20 A8 AD 86 A8
 1F 24 92 DC 1C C2 AD F6 84 80 8B F2 A4 1E 3F BB
 FF 16 B9 9A 82 8A 8C 9A B2 44 70 D4 6D D7 C9 B7
 9A 20 FC B5 8C 48 BA 35 CC 8A 0E B1 97 D0 5A C1
 0C D8 00 F0 E8 86 B4 69 9B 8A A3 6D 18 A4 C4 35
 D9 95 28 2B AF 56 FA 79 43 A4 8F C8 9A 01 10 0A
 BD 0E D2 E8 4C D9 0D 3C 47 C5 60 97 85 4C 5C 26
 4B 3E 18 66 A4 52 29 90 C6 36 AB C3 2C 60 AA 67
 1D 5D B9 34 54 20 24 78 4A 0A 56 31 5F 3C 15 9C
 01 9D 88 44 72 03 FA 91 2A F9 DD 34 0C C1 37 F5
 13 A7 9D FF 09 85 EA E5 A4 CA D9 03 A7 0C A6 6F
 BA 56 DE E4 FE A9 DD F3 85 21 46 83 30 09 90 68
 D2 13 C0 67 02 AE B9 AC EC 26 BC 21 9D 6B 69 F4
 2E C1 94 7F C7 45 9F 9D CD 34 B0 68 0E 60 5C 5E
 9A 1D 1D 49 29 D8 3B 83 BB A2 56 90 60 89 54 63
 3A DB 61 E4 F8 FC C2 8E E5 D1 5B AD 12 42 69 0A
 BD D1 87 E5 3F DA 29 DF 49 5A 41 91 A6 6E A7 4D
 C2 87 A7 8A 21 C2 F4 4F 37 40 0B 03 B4 C3 9C 5A
 09 CB 82 38 B1 1C 51 05 D5 91 F7 5B 9E 1A 8C 90
 7F 2B ED CF 53 E4 0D AA 99 64 4B 21 07 C2 51 B6
 D6 07 76 BD 62 75 52 42 8D C5 C2 69 FA BC 15 02
 EE 13 00 96 3F 3F 7E 66 AD 4C F8 32 3C 4E EB B5
 24 E1 84 BF 28 46 2E 2F 4F DC C1 42 85 1A E2 D6
 7B 86 45 EB BD B3 89 55 C5 C6 95 62 58 D2 67 B8
 1C C7 A2 12 F9 15 F3 B0 DB 58 8B B9 D6 7B E9 3C
 8F 27 91 21 0B CA DE 54 73 58 19 2D 3F 78 7E 7A
 20 93 0E 14 5D 1C 4F F1 34 40 89 E0 80 08 DF 02
 F6 F3 6A 0F DE 1E A1 72 4F 61 AC A3 79 30 11 B8
 DC 44 2C F9 B2 84 A1 CA 34 EE 61 4C 27 FD 95 A8
 D4 1A 69 80 AB 45 D8 F2 4F 65 A0 87 A0 BF 9A 3E
 C5 6D E7 2F 69 74 9E 0E D8 BD 31 F2 8B 3C A2 7C
 78 3F A0 AF 2F D9 DB E4 12 BF 05 AD 5D C7 21 AF
 B1 0A 91 88 D5 25 11 57 A4 B0 39 D1 2F 1F 13 64
 94 35 EB 63 93 BE 03 5B F2 77 4C 8E 6E 6A AA AF
 CD 80 88 8B 9D 35 DF 14 8C 44 65 64 DB 3B 35 02
 23 73 C3 B5 9A A6 82 25 5C E4 DE 72 33 E8 44 63
 0B 51 8A 46 DC AD 6F A3 67 94 AB 71 6D E5 CF B4
 F1 F9 DA 00 64 CA 42 53 41 CA 45 FC 1E E5 51 89
 6F 12 D4 1D B9 CD 88 41 70 59 5B 85 A3 EA 2F 78
 A6 8C 72 A4 17 24 6F BE 07 FB F1 AE FA C1 BD DB
 20 E5 E9 BE 65 13 C2 DB 5B B0 B0 F7 1C A1 B7 3B
 9B 18 B7 36 7C AA 99 05 98 69 1C 9F 16 E7 01 D3
 24 3F 40 6C C6 54 9E 93 0F FF 38 3B 80 26 5E CD
 AE FE 81 F7 04 7E 7C 75 34 C7 17 C1 43 7E D8 F7
 6C 41 DC 38 95 A1 CA 83 98 5E 57 D7 0E AB EB 7F
 87 3C F2 55 5D 7F DC 14 31 AF 4C 54 D5 68 62 E0
 1C A4 B5 98 00 70 65 F8 C3 D9 AE C3 FB 4E B6 6A
 4E BD 58 52 1E D5 F5 D2 08 A2 34 54 ED 6A B8 E6
 68 27 C9 C3 05 F8 4F 85 B5 75 48 A6 B3 31 E4 88
 DE 35 8F 50 66 73 5F BC 38 3B 21 38 D6 1C CE C7
 66 7D BD FF B7 6A 8F 9E 90 41 6A 56 1A 0E 13 14
 6A C2 26 58 B9 56 72 69 CA 0E 50 EA 56 2D 5C 62
 64 08 BE 5F F4 10 4A FF 4A E6 29 D0 FE B1 28 D2
 34 9A 9E 34 9E E6 09 F1 74 7B 11 B2 78 6C 9A F3
 06 F2 D2 37 97 6F 43 28 46 46 72 4F 13 0D C3 B8
 17 D5 F9 3B C8 39 29 91 09 28 8E 85 2F D3 CE AD
 B0 02 CB 44 9E 69 98 68 F7 1A 4B 05 95 0D DD 77
 58 A2 75 B1 17 09 33 D2 63 56 4E 4E 3E BB 36 C2
 F6 4E C9 41 D5 3E DF 22 30 24 2E 49 4C 2F D6 C7
 17 73 5D BB 7D 8B 02 F7 5F 32 7A 4C 92 BA 38 9F
 41 D1 B9 EC 9E B6 EB 96 DA 4C 61 16 A8 F8 A9 46
 E7 43 38 7E 87 5E F4 BA AF 75 99 47 07 70 95 6B
 64 86 84 74 F4 9A B7 DC 86 8D 4E 45 DE 25 AC 80
 0E C0 80 38 48 42 3C 78 5F 21 B1 01 C6 C6 02 80
 E5 17 80 96 46 E2 9E 07 6E AF 68 73 1E 74 94 06
 A5 2A BC 0E 31 45 E7 CB DB 58 52 4B 65 65 3F DE
 96 18 6D B1 9F F9 C0 B6 99 27 DC B7 8E E6 66 87
 52 99 74 5D 2C B8 97 00 F3 C3 7B 74 43 F7 FF 39
 E9 14 6F 19 AE 3A 03 71 F0 E0 12 67 8B F4 80 22
 9E F1 A6 A4 14 E8 AD F9 F6 D9 E1 90 45 27 7D F5
 B3 77 23 96 AF 4B 84 87 79 D4 85 B0 AB 24 97 30
 AA FA 82 B1 C8 22 53 B5 8A ED 94 7D 9E CB 71 23
 45 87 4F FB 37 11 77 49 2E 2A 42 F6 F3 F3 D5 34
 84 17 F7 FD 5E 52 9F 91 EB E3 2A 81 CA FB CA BB
 28 72 93 D1 93 6D BA 2C 4D C9 1E 25 94 33 20 CE
 1C 68 58 C1 56 8A C0 66 B1 5F 4E A5 70 4A F9 88
 2F 49 BF 2F A2 53 B1 3A DA 60 16 7F E5 2B BB 7B
 79 DD 54 47 0B A9 43 CA D6 B5 31 45 03 90 AE 54
 9B BE AA 4F 96 E6 3E A6 C7 8C F5 AF D6 46 E4 92
 91 FB 59 C0 0D 7F 69 80 83 F3 DD 0A DC 86 F0 0F
 83 D8 35 EA 9C 09 FF 95 67 4C 02 97 9F 86 AD 81
 A3 AA 92 4F 4A 8F D4 57 96 C3 0E F7 64 50 5C 6B
 02 31 07 52 2B F8 F1 84 BA DF DC E3 D0 E9 18 34
 F7 60 DB 1A 0C 9E 62 C0 CC 14 2A CB 23 A2 F6 59
 0E 31 46 EA 24 8E 11 7B 04 C9 72 3F 29 6A 24 EA
 01 4F EE 4E 70 57 17 A3 E4 F5 5A 14 68 E6 59 A3
 4E 12 90 F4 40 A9 66 7B 66 7B 67 57 46 CC 7D A8
 57 37 5E D6 A6 CC 43 10 B8 53 07 59 C1 14 E0 E8
 C1 3C 8F AD 06 99 56 92 82 46 A2 69 09 87 5E 57
 8F 35 A3 8F 33 56 68 1B 4F D4 E8 EE 5C 88 23 5C
 F9 1C E5 75 84 40 92 C3 A2 E5 BF AA EE 18 25 C6
 B7 B9 73 6F E1 A7 25 F1 32 0C 13 B7 38 DF 38 4E
 49 9A 69 37 37 AE CA 4B 7A D3 BA C2 D3 0E 8D BC
 C1 D3 7A 5C 4E 1B 61 7C 02 06 7F 06 2F B3 A5 A1
 B8 66 4C B1 90 A4 58 B1 5F 78 85 81 08 1C EE 57
 CC 8E 55 37 99 39 CA 14 AF 43 0B E6 5B A1 33 47
 13 CD 56 B5 1F 14 51 A2 2D C1 FF 0A 2B A0 4E 76
 DF C6 25 15 D4 BA FC BF 68 D1 AF F7 8D 61 E8 49
 43 D2 60 7F BB 4C 59 ED 0A 18 61 1C 66 C2 99 33
 85 A1 E5 78 C1 94 C9 E6 06 16 5D 33 01 3F 5F E0
 9B E7 DD 31 CE 7C 54 80 B6 33 07 5C CE 67 CE 1A
 2B 7E 1F CC 79 E4 E7 23 A9 FF 6A C2 CE 35 4D 4A
 B8 8C B5 A3 CF 8A F4 FF 3D E8 83 38 3C 76 0A 83
 E9 F0 2F 91 50 95 1B DB 5F DD B8 99 6C A6 FC 9A
 1C BB B0 16 FA 9D A8 03 55 4C ED 13 A6 FB 31 37
 2B FF 2B 5E 83 9F 70 42 E3 DB D0 99 57 EA 7F 38
 25 BA 94 29 97 6D F7 AF 05 93 65 34 38 AB 0D 27
 5B 58 BB FB E4 5C F4 4E 36 51 9F 17 06 3E 17 66
 7E 98 68 52 77 DC 14 6B D1 F4 08 69 BA 8A 84 D0
 9B 47 5C 4C 20 4E 57 F1 4D 2C BB FE 8F F9 55 25
 01 67 AB CF A4 90 61 2D 84 30 66 F7 01 A7 45 CE
 2E 67 BA 5A EC 9B 49 8C 90 7E 32 88 08 7D 23 EA
 BA 6C E1 B3 A4 AB 00 06 09 DB 48 95 39 42 F0 41
 32 11 C7 56 CD A6 60 3D 77 28 ED F9 2A C0 97 08
 D9 A3 1A CF 45 69 A5 3D 8F E8 72 26 BF 1C 05 68
 63 FA 5E 34 E6 9F A1 85 50 92 55 BA 89 A5 CC 2B
 3F 86 FA 22 FA A4 B3 EA 13 5B D4 6D D8 7C AF DC
 48 AB 35 F7 36 EF A6 4B 69 CA 84 38 A9 71 BF B7
 0A 2A D3 FC 22 85 86 D1 50 A0 DA FA B3 0A C6 58
 1B CE 0F 6C 93 EC D2 C1 F1 2D 65 FD DC F1 CD 11
 E9 56 A4 E8 19 DB E9 BA 24 C4 86 7E 00 76 14 29
 EB F0 19 E8 B3 A7 BF BD 9B 3B B1 A6 07 D8 D4 FB
 B8 94 EA 60 3F 74 AC F1 0C C6 54 40 75 23 F0 A0
 CF 55 10 1A 69 75 B3 B1 21 AF 54 FC BF 1D B2 53
 DE D8 1F D1 82 E3 65 BC C6 5A F4 8A BC 6C 34 A8
 17 70 EE F7 51 CE D7 AF 39 CD 64 3B 56 D0 5A 2A
 8C 95 62 32 2D 1F E2 67 E6 57 6E 3B 8D EC 7E 43
 F2 EA C0 1C 25 5A 51 49 DD 25 34 85 62 4E F0 4C
 9B 64 EF 3B 82 A7 DF 3F DC B6 2A 3A D5 73 1B 1B
 43 07 DC 4B ED CA 81 AC 4C DA B0 D3 54 F4 FA 5C
 ED 70 B4 76 75 24 E6 A9 00 17 59 19 D1 2E 50 AE
 CE 5F DF F4 5A 79 07 C9 9F E5 D3 EA EE 32 D6 36
 37 2D 39 83 8C B9 31 B7 9F 45 81 0A 72 4E A5 A7
 F9 93 91 09 30 6E 73 10 E8 44 47 0F E2 78 CD 19
 63 2C 1F 39 A3 1A 9D E3 28 46 D8 27 AE F1 C5 6F
 E1 1F CB 79 65 AE 24 5D 6C AE E4 25 F9 0B F8 12
 52 34 15 CD 78 AF DC 6A 09 6C D7 75 16 B7 0F 04
 76 9E C3 C1 F3 BF 93 B1 78 BB 2D A6 64 74 E8 EF
 77 DA 19 77 B5 35 17 15 97 F2 9C 24 FB 71 F7 C4
 A9 BD C2 EB 9A 8E 7B F8 5C BB 3C 22 E2 77 09 5A
 FF 89 EB 0B 68 B0 FE 14 2E 46 48 EF 0B 5A C0 BA
 03 E0 23 DF 82 67 8B 98 A5 F6 56 74 FD C7 46 94
 E0 D3 BB 46 71 54 B3 91 8E F5 4A 50 15 C6 89 87
 26 BB 55 90 7A EB F2 97 4B BD 4F 2A 91 7C 98 BA
 6E EE 16 64 95 F2 D4 9A AB A9 C6 96 61 FD E4 82
 EB F4 F9 99 A5 5F E5 52 E0 B4 61 E3 6A 51 0E 08
 7B 87 7C E0 3D 02 FC 67 7F 32 6A 37 C1 08 41 6F
 59 F3 96 5C B7 28 C4 A4 C6 7A CD 16 BB 08 2C EE
 83 A9 B2 DA C4 A9 E7 90 9D 3F 86 6B BE F9 D9 11
 E7 F9 93 F6 CA E2 69 08 54 4E 47 8D 46 5C D0 D6
 E9 66 D1 F2 FC 74 2E 06 97 5D 89 1F 70 6F F2 17
 57 40 CA DD 41 CD C4 E5 71 39 D7 AA 0C F4 19 E8
 17 BE AD AE 2E A6 BC D4 CE 5E F4 E0 2E 59 0C A0
 BD EB B5 30 7D E0 7D 58 BC 3B F5 69 A3 4B C0 59
 34 3F A0 74 BE 1E B4 0B A8 1C 6E 7B 61 69 C1 72
 FC 7E B9 00 6E 9C 0A C2 62 97 B4 47 BE 69 06 D0
 85 9E E2 24 49 B9 F4 F4 6D 4C 58 76 1E D1 BD DF
 91 9E 19 7F BC 4C 35 87 D5 C1 99 8D FD 37 BE F1
 E4 58 9D 78 4F 9F 69 32 8B 96 07 EC DF B8 6D 12
 94 B1 1B A7 04 72 5F D1 77 BD E8 CF 24 8E 47 0B
 31 4A 59 D1 81 6F 76 56 85 F2 A1 C5 B6 63 8A 41
 BB 83 E5 1D FB D2 42 CF 66 13 8B 6E 5C 1E A7 08
 46 19 6E AA 4E 92 49 AC A4 C1 A2 B5 1E 8F A6 BC
 C8 63 9B 3F 42 44 92 62 1E E8 E3 57 12 D6 73 7F
 CB A0 0F 98 D6 7B D3 4F 2C 5D 47 D3 77 B6 2F D8
 E8 9E 06 0D 1B 6A 3C 04 1B 21 FB E0 43 88 10 E8
 9E FF BC 05 3C 07 05 7B 7A AE 9D 06 49 91 7E 6F
 2F 99 23 C7 BC 7A 23 A2 0F 14 7A 4B A8 D5 DF 01
 9A 3E FB B6 62 4C 93 90 A0 D3 D0 DA 3E D6 5C 08
 84 41 C9 DB F8 F0 DD D6 3E AA 91 8E 25 34 7A FE
 AB 78 35 F1 E0 F6 BD 9B B3 66 23 26 91 79 49 46
 92 AD 8A 23 EF E8 57 9A A8 BC 83 84 3B 83 E3 0D
 19 6A 5D 28 5D 9D D5 02 54 67 CD EF AF 35 2A 75
 11 F2 08 3F 2B 6A A2 28 9E E5 11 6C 01 14 34 62
 FF 8A 20 6A A4 FB 8C F1 F1 DE FF 3A 78 A7 08 DE
 D3 06 95 91 67 72 26 F3 AD 0A 52 F6 E4 DE 66 4E
 EE D6 82 E4 FE CC FF A1 B1 DB 48 4B 8B 5D 3B A4
 FF D0 71 52 E4 DF 0D 30 12 98 B9 ED 44 B9 45 D4
 BC 5B 38 AA 0E 8F 07 59 90 77 3C 7E 22 46 C2 F1
 16 AF AF 5D 07 B2 00 2C D3 D9 74 71 B3 C0 AB 86
 DA D7 A4 AD BE E7 21 CA 50 E3 C7 A4 05 67 DC EA
 7A 55 8F B4 AC B6 3B DE D5 31 B9 A7 13 02 5C 63
 13 F5 C2 C8 68 0E 4F 5B DC C5 E5 51 7B 69 7F 2B
 74 CC 11 9E 2E 10 DA 51 A5 FE A7 D9 CB 2C 34 A8
 C1 90 58 1F C8 9A 16 61 61 3F 45 E0 A4 43 DE 15
 2A 91 7C E8 5D 1B 9B 4B 30 75 F4 7E 5A 94 1B 5A
 EC 18 18 2D 18 B9 AC 19 09 1A 7C AA 86 8B AF D8
 3A 91 DB B9 44 78 1F 96 AD D8 28 CE C2 91 90 27
 4D F4 34 CB C2 9D AE BF 9F 10 38 B9 C5 38 11 F7
 35 53 AB 39 A5 A0 27 20 8E E2 7D CE CB 95 18 2D
 FF 12 CE C2 73 49 F9 EA D8 09 64 4A 09 DE 72 D5
 6B 95 13 31 05 7E DA 3A A0 1C A4 FA 0F E8 D1 42
 EB C8 C4 42 C4 1D 4B E0 1D C2 C4 C0 3D AE 5C 63
 AC 65 E8 F9 56 79 08 53 60 08 4C CC 30 E3 0B BB
 CD F5 AD 66 3F DF 32 C7 28 7F C4 CF 02 34 60 B6
 DE 8A 20 C6 3B 70 0B D9 E6 D5 B1 70 03 24 49 3E
 99 B8 34 CE 86 25 D6 24 C5 FD 17 3E E9 5E 93 E5
 57 84 3A 12 9B EA 8E 1A 40 68 B5 EF BF 5E 26 D8
 6D DF 3F 34 D3 89 97 B7 E6 BC 11 90 3A EF 4A D5
 53 9E 52 7C AD D8 A6 1E AD 43 4A F3 61 CB 5B 15
 D8 12 3E 3B A9 63 2A 50 2D 4F 66 30 B1 A1 C1 6F
 A0 C5 65 D7 9A 7B DC D1 A6 6C EA 45 B9 9A 20 0D
 E0 40 74 60 40 80 16 4E 10 37 9F F4 AA A3 CF F6
 D7 E3 CF DF 71 17 A3 A9 20 F9 AA 36 5F 7B 59 2B
 CB 1F FC 74 85 AE 1B C8 F3 4F 46 D0 FC 09 50 DA
 0E 84 36 B6 D5 ED 3D DC CE 80 78 21 FE 7C 13 76
 63 AF 55 BD 98 8E 76 7C 15 DB 47 73 42 26 91 F2
 7F 13 C8 E1 35 AA C0 DF 0A 64 B3 C1 2A B9 90 3F
 AE FD 52 AB 4A CF 50 1B F2 FF 3D 12 08 32 A3 AD
 7C 36 12 08 F0 1C E7 EE FF 38 DF 90 D0 A3 04 47
 3F 02 3B 58 F4 8B 72 A4 DE FD FB 20 0F 32 90 05
 F5 8E 1F 00 4F 90 0C E9 FB 17 38 D0 7D 78 5D C1
 67 57 F4 21 2F AA A6 78 53 3E 1A C0 13 76 EF 11
 6A ED 71 D6 66 63 FA 85 DC 24 9B 4B EC B4 CF 91
 BA 46 97 32 23 24 65 18 65 F2 5D BC AA 59 FB 3B
 BD A3 B3 95 B4 E0 0F 74 A9 41 C5 42 68 C9 73 20
 F3 F0 01 83 85 3A B1 7F E4 50 AF 06 A5 3E 23 C5
 66 7B 6B E4 B9 96 BA BC 02 CD 49 D6 FF 9D 8A 98
 B6 D1 35 2A A7 83 5B E5 6A DC 0B 80 F1 CC 03 39
 7C D7 7B 23 F2 D8 18 E6 66 75 4E D3 81 57 AE 76
 8F 3B BC 55 50 6A 90 46 A4 A8 72 A4 09 C7 10 BD
 3D 06 84 04 B4 8B 65 42 CF 3A DB C5 B5 C7 08 BF
 C5 DC 45 92 93 9B DC 9E 5B 82 E1 8C 31 E7 EB 3E
 9B 15 BC 0D 43 EF E8 E2 92 04 DF C4 80 A2 9B 74
 9F 08 F5 27 95 2D D0 E8 C9 A9 47 D5 98 F0 C5 AD
 5C 67 F8 0F 10 A0 09 16 A7 6B 45 64 8E FB FA 9C
 CC 49 0E EC 60 06 0C C4 57 0B 7A F3 BC 78 23 6B
 9A 3A 19 F3 C1 14 6D 9D 38 83 46 4F 80 9A CA F4
 BD D6 D8 82 2F 83 B9 DB 7F 07 6E DD E2 42 84 2A
 0F 38 13 5C DA DB 6A 23 28 49 EC 35 02 D0 19 F9
 57 B3 55 E6 1B AF 3B B6 DC C9 AD E9 30 EF 00 29
 FB A4 1E 99 42 9E E9 4A E6 2A 55 24 41 B5 87 48
 3A F5 B9 34 55 71 D2 C4 35 BD 0B 72 FF 7B BF 4E
 93 ED AA FC 92 46 66 ED CD 98 13 2F D9 E7 8D 5D
 C5 24 B0 F2 3E F4 A9 E9 60 A6 85 AC E5 DF 25 79
 05 06 8B 99 59 80 3A 54 2A 7F 6E 15 01 13 B1 6F
 F7 A2 8F 77 67 3A BD 2C 43 48 77 48 9C 6D FA 13
 1A F4 7B B3 C4 DD D0 56 42 81 EE CC E3 C6 0D 51
 B8 AE 1B FD 26 5D 10 71 20 73 E5 34 81 CD 52 1E
 C0 73 B9 8F BA D1 67 A0 8C D4 73 78 26 27 AA DE
 CE 54 5F C5 08 6A 4E 74 9C 2F 94 8B 82 FA 4A A1
 C7 B2 1B 85 F3 05 BA 8E A0 8E B7 6B 05 03 A4 AD
 2C B0 0C 87 C8 6E 22 98 C0 A4 2C 1E 98 F6 DF 96
 BD 22 72 57 6E AC 60 C1 D6 5F 84 7E EA 9D 85 13
 94 DD 47 66 37 2D 80 4B 7F F8 42 2B 9C 3C 59 7E
 BA 8F D3 F4 45 94 EF DD 67 DC D3 F4 C4 24 C4 DD
 B0 FE E5 61 7A CB 14 82 77 AF FA 3D 62 A1 36 59
 82 C2 8C 26 21 3E 17 B8 35 40 DF 5F C1 EC 2F 98
 D9 04 B9 C1 D0 74 1B 91 28 8B 8A 6E 1E 21 91 6A
 4C 55 6A 89 22 86 8E E4 96 88 04 9E 28 65 51 DD
 CE EB 0F B4 EA D3 20 7E 8C F3 90 6D EB 5A F6 C5
 CA C4 AF B1 D6 73 B0 35 48 75 98 90 C9 5B 50 DD
 63 65 8C 74 32 75 25 2B 92 05 64 31 95 7F 24 69
 7C 77 33 16 38 DD 27 F3 24 7E 95 D2 7E B7 7C A3
 3E 03 74 0C 2D 69 61 C5 20 C0 6A 12 7F 2E 61 C6
 7F 87 12 7D 7E 59 12 6D E9 7F BE 62 43 0C 7D 50
 87 1F 12 5F 83 1E BA D0 36 61 AE 24 38 8A D2 54
 F5 2E 2F C9 2B 92 C5 80 C8 9B 9F EF 60 F4 2D 0A
 E3 F9 2B C7 58 C0 1A 44 2A A5 8D 58 E9 4C F1 B4
 3A 59 43 DC A5 51 7B A6 C8 1C 19 1C D2 49 65 5F
 91 D8 D4 63 99 B6 DE 41 4D ED 40 3A 90 05 12 49
 82 59 C6 5F 22 38 D2 AE 17 4D 53 C2 61 A9 27 A7
 F4 B3 1C B8 7D 2E 66 DC BE F4 A6 C1 22 8F B2 C0
 40 C6 9C EE C2 58 80 29 90 40 FF 0B C6 72 14 AB
 6D D6 91 58 70 B3 89 E9 E7 FE 70 96 49 FB 16 EB
 17 33 D0 9B 87 3B 92 DB 1A 3F 10 52 0B 9E BE AC
 B1 16 43 A5 C2 3F 3B 9D F3 A0 9F B8 C1 0C CE 3E
 98 D2 43 A2 09 E6 33 49 EB 95 5D 33 82 61 BD 2B
 C2 ED 04 E2 3E 35 1A 94 37 CD 39 03 E8 20 25 EB
 45 E8 C0 A2 39 96 DD 48 D2 7F A4 4A FD 0F 7B 3B
 B9 CB 37 FB 5C 62 07 66 CA E4 F5 56 C3 17 15 8C
 10 39 87 88 54 60 59 61 20 9E 98 92 C8 67 6E 64
 AA 34 BF 13 63 92 08 5D 2E 06 ED C7 E3 87 66 6B
 78 CA FD E3 B5 9D 69 59 A1 3B 36 56 A6 A6 C3 9D
 B5 5D 06 9A 2E F0 30 AF B9 EE A1 0C 4E 7B 41 BA
 9F B0 97 96 4E E3 1C 08 39 7C 1E 1B BC FD F5 6F
 A2 91 86 25 4F EC 79 6F 60 3B 70 9F F1 6B 4D 80
 98 EB 13 8A F5 DC CE BD 95 10 B9 A2 E2 0D 88 D6
 19 40 FC 4C 18 83 AA B0 6F 8E 70 2F C4 D7 CE 65
 46 41 BF F8 18 AE B4 B6 7C 79 AE B8 75 D3 7C 08
 F3 01 E3 32 CF D9 F9 AC C5 D0 15 2E 63 2F 6E 60
 BF 25 D9 B7 B9 29 26 3D 27 08 74 0B 51 20 13 4C
 D8 AA C4 7B 23 C1 B3 0D E8 74 4D 5D B8 62 C5 13
 A9 B5 45 6E 01 39 FB ED 4F 86 63 7A 1F F4 85 B7
 0B 6F B4 1E 30 62 BC B5 62 9A 11 ED 86 A4 1B 16
 81 19 1D 3A B9 66 7F 7B 68 E8 89 DA 6D BE AC 11
 AD 7C BD BF 60 A4 92 EF 35 38 79 CC 4F EA BC F7
 08 AD DF C1 1A E1 A3 81 6C E3 54 1A DE 19 C0 2C
 6C 16 BC 02 7D F8 AC BD 74 DE 50 33 89 94 73 C0
 97 52 0C 74 7C 72 3E DC BC 51 EC E1 36 69 BA 9C
 14 5B E7 EC 9C 84 48 ED 17 D3 99 62 17 76 45 50
 1E 61 D3 5A FE 17 2B CB 65 2F 75 96 B7 F8 78 91
 58 30 3B F6 F7 79 62 4F E8 8B 4C 6E E6 24 4E 99
 86 09 CB B3 9F F1 49 EF 3F B5 6A C8 4E 41 06 AB
 AD 4C 98 0B 8A 6A 22 72 C2 B0 57 0B 0D A6 99 BA
 A9 2A 8F 96 69 45 C8 17 B2 56 6C 8B 37 0B 9E 87
 7B EA 9A BA 6B A5 00 07 33 13 8A 25 4E 5C B5 CA
 AE 9C C9 7F F8 2D 18 8D 7A 74 A6 84 23 64 4D 76
 1B 40 F2 52 43 A8 B0 F9 DE CE 40 4D AD C0 E6 3F
 B8 E3 14 D0 17 34 FF A2 5D B0 4D 39 D0 06 92 D2
 13 4C 9D 66 75 46 F7 B7 35 E9 C3 4D 41 D1 59 20
 DF 61 F1 6C 68 9B 79 8F 89 34 31 CE B6 C8 D1 FF
 B2 6B 14 0E 99 4C 9B 9C 78 72 3B C9 30 7C 85 40
 E5 27 1B 13 2E 7A 1D C4 9A 9D A8 9B 37 89 96 3C
 AE 30 18 DF 39 5F 1F 99 AC 6E 8F 7A F6 18 C5 C5
 7B BD CD CC 51 00 25 51 DE 9A 51 45 E1 82 9D AF
 F1 ED 7A FB 31 91 26 5C F2 3D 65 C5 09 4D E2 A4
 6D 26 AF 13 BC E9 16 C3 E5 FE A3 4D DD 8E 84 56
 92 F8 19 2C 59 DF A8 E7 2A B1 86 55 0B 33 D3 09
 6D B2 21 17 DD BB A2 B2 E9 0B 10 8F F5 B9 54 2C
 5B CE A2 37 26 AE 3C 26 B4 64 89 26 CB 8D 72 97
 37 80 7F DF E3 4F BA A1 B4 DB E1 13 EF 0B 80 6C
 A4 EF A8 8C 54 73 DC 21 DE DF 35 0D CB E4 68 6F
 7C 19 42 F2 EC C7 14 73 9C 6C 90 20 DD 4C 87 49
 25 B4 C1 50 6F 7A 6A F7 E8 16 6C 06 AA FD 48 5C
 BF 87 FF 84 5D D1 55 66 F6 05 68 21 F8 B1 15 95
 E7 03 0C ED D2 4B 48 6A 36 DB 3D 17 C0 00 94 46
 CE 10 62 81 38 D3 ED 67 41 73 AC 4D CE 23 E8 38
 E1 08 E4 A9 02 F4 3B 60 15 14 72 88 09 7B A9 C8
 17 07 B7 BD 89 9F 33 97 08 E8 57 CF 12 55 CB E8
 5F D1 84 6D 66 C0 83 0F B1 BC 6B F7 5F E3 9C 4F
 11 DD 87 26 DE 08 D0 E3 AC BE A0 5E 18 4A C0 F6
 C4 37 18 EC D8 50 7E F2 74 09 DD 21 F2 81 3C C1
 3D 4D 6A F4 A8 29 D0 35 6D 3F 02 14 B1 1B 00 EF
 19 8F 8F 5D 8D 4A 58 19 FE 4A 7C 98 E2 8C 9D 92
 48 2A 7F 4E BF A1 94 71 09 76 C9 B4 14 24 E3 8A
 8C D8 CC EC E2 8C C9 14 DB F5 2D 77 3D 36 DA E5
 51 43 45 59 AA 82 45 16 F0 41 9A 25 F0 63 24 9A
 56 10 FE F1 CC 70 20 18 DF 10 D9 E5 44 79 76 84
 94 83 29 9E 57 EB 82 9E 0E 6C F1 86 D5 91 40 75
 83 B7 0E D3 FC 2B F4 D4 1F 77 16 36 D7 40 41 8F
 DE 6E 33 2F C5 30 34 A2 9F 9A 60 63 47 71 EE D0
 E8 6A 56 29 F6 E0 40 F2 86 EA CC 28 1F 21 E4 27
 D1 93 60 1E BD 99 40 1E 53 EA 3F E3 D6 D0 75 5C
 C8 57 18 9D 02 8A A0 CC 2D B2 55 02 2A D0 7F F9
 12 50 FB 22 10 00 A9 71 BA D9 CF D6 AD 23 AB AA
 91 99 ED 92 9F 46 08 90 3C 44 A9 2E FD 3A 84 1F
 EB C9 18 F2 CD 51 2C 94 B4 56 F3 66 B7 3B 14 C9
 E3 10 B8 5F 64 C0 D9 EF 77 18 29 84 0F 3C FA 79
 39 27 F9 DC 54 9B 04 40 7E B6 A3 19 97 DA DA 17
 6B 2D D7 7F 12 7F 17 10 49 E6 BD C8 FF F1 F6 9C
 EE 3D 38 56 30 52 25 C5 7D 79 7A 1C 1E 84 C8 D9
 2F 65 2A C3 92 5B B0 2C 0F 30 6B 19 9D B2 D7 11
 FE A7 F1 27 6B 74 7E 78 49 A4 C1 96 AA D4 D0 D3
 83 C0 38 38 CB 5E E9 3E 78 2D 83 FE 59 2C 0E 38
 BC F7 60 CF DC 55 6B B8 80 81 9F 44 38 14 5A 53
 62 CD C5 5C 2F 4E E4 27 A2 39 F0 4B 04 2E 2B 78
 F2 E0 DD 53 87 07 47 1D 39 E1 D4 87 17 51 8B D1
 98 02 D6 05 5B B4 19 65 A7 14 97 27 40 75 F6 2D
 EC DA 8F 96 89 15 D8 97 1F 2D 13 DD 0B F1 38 EE
 B9 D9 F0 FF B8 AC F5 A8 3D 05 87 35 E2 31 BA 27
 C7 B4 AC 5F 45 66 67 C5 E0 42 A8 01 69 95 6B A7
 BF 49 48 42 F9 D1 30 BA 36 77 88 40 A3 8D FA C7
 19 7D 21 09 80 DF F6 91 6D 74 66 EA 48 F7 3A B3
 88 2E 13 D5 9F 13 3F D8 D2 4D 07 BA E4 C2 44 42
 B6 0A 81 12 D5 F7 A5 1D B5 03 31 CB 91 A1 0D 0E
 75 09 78 7C 6E 7D 83 9A E5 9F 45 54 DA 65 D6 87
 EC 6C D0 0C FC BC DB 23 2B 85 A6 97 95 8A 1D 81
 C5 A7 73 F8 29 8C 2B AA 68 25 B0 E2 4C AE CA C8
 CA 2D B1 CE 22 AC D0 47 E4 65 DD 15 13 6D 8F E8
 16 C5 F3 66 9E 1F FF A7 41 B2 DF D6 A4 1C 18 A5
 6C 95 AF 79 C4 C7 01 E4 5D 61 5B 32 7B CE 15 63
 5C 48 97 CB 5A BC E8 4C 71 93 C8 87 CB 27 E9 C2
 BD 2F B1 28 32 EE 3A E3 A8 A2 D6 2F 98 02 02 CF
 10 F6 34 45 B4 AE 99 17 8E 84 EA 72 37 A7 C9 13
 A0 DB BD 51 1B 7B 52 6F 32 83 FC 79 03 09 76 7A
 29 1A A4 2B 17 43 A6 34 96 1D D3 D3 3E 9E 70 5C
 42 BF 3C 12 1C 0C 75 5A 86 A6 EF E7 C9 1B 4B AF
 00 C4 BB 12 0B F1 D3 77 27 37 53 FB C6 E2 50 CB
 EC 2B 3E D9 12 FD 61 14 58 6D 47 CB 99 E2 A3 9A
 3E D0 88 C9 7A 6D 13 CB B6 39 A4 C1 86 67 33 71
 DA A9 A8 BD 98 3E AD D2 C2 F2 B0 B1 0A 91 96 17
 E2 EE F4 41 28 E8 D8 E0 DF B1 8B 61 C2 5C 77 76
 94 C0 42 87 25 E6 56 5E 1D 0E CF 30 AB 77 B8 73
 57 E6 81 A1 DA D0 A3 C6 22 56 84 CB DC E9 97 09
 DE 79 AC 6B 0B 13 BD 19 30 FE 11 9A 70 6C 73 D0
 98 5C 57 A9 7E ED 94 23 03 A6 54 F3 2F 79 41 CE
 58 A5 E7 DA 49 D4 D3 C8 2E 65 52 48 77 BE 9F C6
 47 5E B2 7F 61 8B 86 AA B1 72 5C 0F 78 7C 6B E1
 3D BC 1C AF 79 52 29 4A 56 3A AF E7 7E 3B FA 17
 23 A3 F2 73 6F B4 25 7E 27 49 24 D0 30 B5 93 4E
 6A 6C EC BC 34 0B 80 9C 9C FD 51 D1 CC 88 7F 63
 D6 19 45 2F 7B F0 E2 67 95 98 02 04 EC 95 59 DD
 46 A4 48 53 3C E5 2D F8 65 93 49 9D D8 6D A6 72
 98 FE 0E A5 67 0F 93 5C 5C 9C 46 BA 3D 86 4C 4E
 4C 6B 15 66 C6 35 9B B5 AC DF 96 D8 17 5B 30 22
 B0 E5 DA 4A B9 5D E4 D9 BE 3E 08 C1 56 99 0C 34
 83 F2 DF BD E6 9A 14 8D C1 92 86 35 13 99 1B 63
 A5 D2 78 DD 12 9A EA 72 7C 58 64 59 0E 8B 70 29
 3C BB D1 4B AD E2 07 84 D8 A8 EE 40 20 1C 76 1B
 A7 88 9D C6 62 DD 1F 81 F7 1F EE 5D 9A F9 BF 0A
 20 91 B8 10 44 99 E4 4E 1E 9D 32 17 23 8A A2 36
 22 6B F7 B3 1A 78 F9 65 5E 39 7D 53 26 9F FA 00
 69 D9 EA 3D 45 48 46 1E D0 7C CB 3F 88 70 53 A1
 79 C9 5E 07 16 2F FC 28 D0 A2 3B 82 6B 05 C5 43
 B8 A4 D8 92 FD CB 07 73 AE 98 F8 63 5B 62 66 F6
 3E 83 0F 9C 63 63 FC FB EF CB 3E 88 2C 25 1F A1
 88 40 E8 3D 1C F8 BF 7C 94 7A D3 52 D2 BB 72 7F
 E1 51 02 D5 80 F8 03 2D 3D 3A 76 65 57 ED B1 0A
* End 1909646963 971347679