* LTspice Encrypted File
* 
* This encrypted file has been supplied by a 3rd
* party vendor that does not wish to publicize
* the technology used to implement this library.
* 
* Permission is granted to use this file for
* simulations but not to reverse engineer its
* contents.
* 
* Begin:
 65 C4 32 2D A0 75 50 DF 11 C7 C6 58 04 59 70 29
 85 AE 9D A4 95 B6 62 D3 CE BA 72 21 04 F6 68 E0
 31 06 54 20 F8 FA F7 6E 8D 1F 01 07 D3 17 C7 C6
 64 2D 82 1C 08 13 F1 89 C0 50 20 F8 A6 B2 9A 9C
 41 30 C2 5B 2B C9 DB 0B 91 36 93 30 8E 8E 58 92
 5A 1E 3F AA B1 68 64 CE D1 8B 0E 3B F5 32 04 07
 4B 55 E8 86 BE 25 E2 2A 3D 4F 0B A4 CC 0A E8 40
 43 DC FC 1D 4A 7D 9D CC CA 84 37 E9 63 85 BD 46
 7F EB 13 2A F7 84 E2 0D 74 96 41 7A C6 AB A8 2F
 C3 4C 02 9A A9 D8 EB 56 BB EF E7 80 7E 70 13 37
 6E 83 3F 42 07 27 CC DD 4A E8 B0 43 BE 04 46 F3
 50 51 11 0B 3D 2B 45 65 90 21 8C DE 51 6F 85 EB
 A2 A6 C6 AC B2 F1 20 B3 36 25 B7 70 56 45 33 01
 3B 6C A5 2B DB 8F 1B EE 29 75 65 81 79 1B C8 63
 49 70 64 65 EE B8 ED DF 14 5B 5A C0 F2 2F 38 13
 68 B0 E0 F9 FC 7B 81 30 6E D8 F7 1D 93 FD 42 42
 1C BC FF 39 17 AA A2 2F 55 76 11 88 56 EB D4 4A
 E2 72 83 4A FA 43 F2 4A 19 A8 5D 7E 67 C9 85 20
 20 42 B7 8E 70 C0 20 79 8E F8 A2 60 5E 10 28 BE
 02 68 78 CA 1F B3 74 A9 B7 86 91 25 CF 72 68 64
 A1 42 F6 3E 23 E0 44 BF C3 16 E3 BF 47 09 0E 69
 81 66 93 70 C4 15 BB 00 69 BF BF 34 C3 01 32 4C
 40 D5 DA 26 17 A1 60 B8 A5 D9 6F A9 09 F8 96 FA
 A6 FE 56 B2 94 08 6D 0A 93 99 CE 13 7B 5B 49 82
 E1 DB 5B D3 D8 00 58 A3 20 60 8D 2B F6 50 86 19
 60 58 2B 74 8A F3 45 3F 83 AA A1 57 26 92 85 D5
 F9 39 3E E6 F9 1A D9 C9 4E 89 DE 34 81 8E 3B 12
 FA F7 3B 4A 74 54 C4 D7 12 87 5F 1F BC 7F A8 27
 A0 12 92 7E 0D CD 33 D1 68 83 04 3B 88 CC CF C2
 BF 93 8A 69 08 93 5B FE F1 A1 EE 1D 42 EC BC 3F
 7E 02 B8 03 C3 15 67 97 78 A3 C1 D3 76 5D 75 BD
 92 FE 8A 3B C3 B1 CA 92 F5 AC A7 B6 90 F8 35 3A
 AE B5 C6 AB 08 BF AC F3 5E 46 69 25 77 B4 AE BF
 AD EA BC 7C 1F 58 9E 1A D3 45 A5 BF F7 2A F4 E7
 D5 4B 34 F7 A3 A2 D5 5E 3A B8 BB 60 51 AE D1 08
 0F DE B9 89 91 F2 5E 4A A5 D6 C9 8F 8F A8 79 63
 2E CC 67 46 3D E7 E4 6E C9 AC 48 7F 23 9C 91 84
 87 A9 F4 50 C0 D1 B0 CF 3A 0A 3F F0 E8 B8 F7 0E
 19 95 F4 58 CA 97 8E A9 69 9A B5 89 1D D1 D5 FF
 6D AF 07 3A D8 FE 8D FF 5C 8A 2D 83 FD 10 83 D2
 0D 0D E4 7B E6 AF 06 DD BF F7 AD 3D C3 CD 05 67
 78 44 F0 10 8D 70 37 60 18 B7 9C 0D 39 1A 7E 74
 FC DB 20 5C ED D8 4D 77 90 44 01 5D A6 80 6D 62
 B2 66 7F AE A5 06 7D C9 81 EF 67 17 16 B1 DD D1
 04 A9 69 90 8A 0F FA 8C 74 77 C2 23 9B 66 59 AA
 BA 30 2B FF 7F 67 0A F3 15 55 1C E4 98 E8 F8 50
 6A 90 77 5B 3F 9C BF 2C 0F 89 D8 43 B8 E4 10 DB
 68 98 5C 40 DB C3 CB 9D 7F 42 34 33 FF A6 2F 7B
 63 25 BD BA 63 7E 1E 0A AF B2 A8 B2 FD 96 EB EA
 0D 84 3E A3 3A 7D C2 63 59 F9 AA 26 15 34 00 20
 2E 70 6C 5A 49 40 D7 50 9F DD E6 18 62 C6 1B 23
 BB 5D BA 61 15 C7 C7 A7 BE 8E 9B D9 CB D1 91 48
 C5 26 CA F6 86 CC 67 82 DE E0 53 A0 CD 3D 1C 57
 92 8E 48 09 BF FA D9 73 D5 EB C5 34 89 B0 56 36
 6B FF 27 1C 14 1E E2 37 EB 3F 16 27 E7 D1 4C 16
 A1 5B D1 41 BF 33 FA 5B D6 C2 9B 28 74 C0 4A 18
 BB 01 49 4A 71 6B 94 60 B5 C1 EB 0E FC B2 65 55
 1D 29 1F 4E 21 04 1B 83 46 2B 79 B3 94 34 6C 4A
 34 B0 38 75 4D 4E 8D 2E 57 09 F1 BA 96 02 3D 41
 10 E6 19 63 D1 3C 1A 92 3B FD 02 02 DC 7E E4 2D
 BA 8A 33 99 BF 73 DE 57 F0 78 53 87 B8 12 AC B1
 F2 3F D5 BE 4F F1 E2 8C 5D 9E 50 CE 34 71 F2 24
 BC 2B 51 6D E7 6D 9F 24 D9 39 08 E3 DE F8 E2 B0
 D6 BA 81 AE 58 94 3F 61 66 0B 6C 7B A9 92 AB 1A
 05 55 40 38 7F DF F3 D8 99 CD 81 51 78 11 72 88
 FD 29 48 32 E1 DC 69 B4 EE 64 2B F4 9D D7 F1 8E
 BD 59 08 04 78 66 F7 5D 64 D2 EF 0F 41 DB C4 17
 F9 C3 B1 28 E8 92 0A 40 FA 49 BC 53 DA 8B 75 75
 BF 0A 3B 44 54 7D DB 02 23 BF A9 EC F7 C8 5F 9C
 BE 74 64 B1 C3 02 DD 68 0A 24 2B E5 47 7F 8A F8
 F4 97 1E DA 30 7C 90 D4 7F BC 85 06 2A 66 A1 3B
 6F F7 18 F3 72 5F 20 3C E4 D7 A1 1F A6 B6 AF 84
 3A D6 CE 0F 3A 4A C8 BF 54 5D 65 D9 71 5E 49 77
 EC 2B 2F 84 73 B5 70 E3 E4 13 9D 0F DF 3F D9 A8
 2B 4E 39 BE BB DD 65 E7 43 A3 C0 7F A1 F0 CA DC
 5E 5B B5 36 7E 26 BD 1B AA B7 E4 3F 36 D2 44 76
 23 64 92 98 9C 86 55 69 4B 25 43 ED C3 42 8A 94
 35 0B F8 98 EE 3B A9 F3 84 E4 31 11 49 D1 5C 30
 19 7F 50 45 F9 49 24 E8 7D 6D FB C1 B6 AE 9D BA
 21 00 B4 25 C1 9D D0 A5 EB 38 41 79 5F 02 3A 2F
 91 A9 65 37 09 64 EC 01 38 14 82 62 66 D9 C4 3F
 C2 C2 76 F4 53 85 36 84 91 83 F5 75 78 A0 1E D5
 F7 CB FE 4F 05 D7 20 91 B0 D0 2D 8E 9B A4 36 85
 CD 96 CF A4 88 D9 01 2F B0 DF 67 92 A1 A6 FE BC
 04 D3 F7 06 40 3D 29 EE 3A 0A F0 0D F8 E1 91 8D
 6E 9D A8 5A E7 11 35 85 C4 FE CB AC 77 92 00 03
 62 42 A9 4A 68 ED B1 79 AF 03 62 E5 60 35 5A 7D
 FE E2 DF 4A 4E 25 99 46 A4 84 5D C5 BB 68 BE 81
 D3 15 C0 92 8E E0 6B C6 A5 05 5F E6 71 FA F7 4E
 99 9B 93 75 75 BA 6D 40 28 A3 35 4B 9F 85 62 DE
 E2 F6 B9 6A BF 12 FE EF 95 CC 82 BC C1 5F D0 47
 0B E5 DC 1A 51 22 3F E8 95 AC 6C AF 0E B4 33 B1
 F2 6B A5 04 38 95 CA 17 FD D7 2A 98 25 BD D1 CD
 C9 67 86 E2 62 39 73 BB 16 3D FE CF E6 4B D8 83
 7E 62 3C 7C 13 38 65 2E 55 22 1B 3A 87 72 D2 EA
 F8 C7 EB 05 C9 BB 1A 26 74 BF 0D 08 D3 FD 35 A9
 14 D8 E4 35 BC DD 0B 87 18 02 F0 F0 62 8D DA 9F
 5F 60 B0 AC 14 A5 CB A3 67 CE 43 9A F8 D2 3E DB
 B6 37 BE C5 B8 EB 4E 4E 02 86 E5 F1 7C 3D 83 C2
 FD 23 3B 79 A6 F9 8B 38 A7 CF 59 67 D9 DA 75 71
 FA 6F BC 78 58 92 57 E5 8C 04 87 5C B5 45 ED 1A
 0C 14 82 F2 BB 0E F3 0F 99 B7 2F 4A 43 29 C8 9F
 C0 10 42 AA 77 DC 7A 93 D7 1F E4 8D 42 80 F6 93
 E4 FB C3 F9 0C 2F E6 8F 53 95 93 9C A6 4B B2 5E
 AB B5 3C BB 2C B3 F7 33 2E 0C F1 C0 52 6E B5 DC
 91 7E DE 38 B5 6C 70 35 BD 2B 1B 67 65 CC 9D 31
 0D 2C A3 0C 07 37 55 20 0C E7 73 47 66 8D F2 32
 5E 49 CC 84 BB 01 2D 02 DA 85 4E 38 21 16 FB 81
 8D F8 E1 5D 84 38 B4 6A AA FB E3 85 A2 F6 9F 88
 ED 5D 7D B1 47 C6 08 EB F3 1E 47 52 97 60 24 5A
 23 1B 9C A6 39 4C E4 DA A0 93 1B 44 3E 99 BC 50
 F7 CE B5 10 E6 FA D3 3B 30 7A 3B EC 9D 35 A3 AC
 66 05 16 4D 89 79 6A 06 96 48 C4 82 69 E9 F8 EC
 40 1E 2A 5F B4 ED D0 57 8D 81 CA 9D 64 1C 1D 57
 4E 41 EC 04 61 19 D3 AA D9 C7 3A 1D 8F 5B 9C D8
 1E B7 00 D0 E1 D4 31 A5 5C B8 79 F1 CE DF 5F 50
 DF 24 F0 12 17 37 CC 0D F5 B2 98 03 1F 7B 7E E1
 8A C9 26 E4 95 7D 80 B5 E8 00 93 0C E6 A2 52 9C
 B9 81 9B D7 36 65 04 E9 E1 2F 12 CD 2C D6 87 3C
 9E 9C C3 FB 0E B3 31 9B DC 1F 6D B2 E1 F2 54 6E
 5E 7E EF A2 03 CE 54 2E 74 3F A0 01 64 F3 AA 1A
 E0 9F 60 49 AC B0 9F 8B 6A CF 74 F2 69 C2 67 C7
 87 CF CA 89 D6 62 D0 23 63 B1 9D 6E B9 D7 9D 2C
 FF 7D 88 9D 54 FE B2 C2 FC F4 99 71 A4 E7 80 2E
 9B C6 79 E6 BF 35 8A E0 1F 06 32 06 F5 BA E9 55
 DE 4A B1 E8 77 AA F1 4A 40 0B 82 F6 A8 95 6F 8B
 C7 2F 1B 6A ED 6E 9A CF 42 0E 2F 85 E8 C3 B7 F1
 2E CA DC AE 48 19 69 4A 0A 8F 64 3E 2B C9 17 7B
 20 CE 7F 43 5E 12 E3 48 13 BB 8A 17 F6 AE C6 89
 AE 20 16 06 5C 5A 39 9A 72 B2 9B A6 32 01 2D 31
 2B 8F FC B2 A0 AF A9 25 D5 56 35 7F 86 D1 68 4A
 82 08 01 92 5D 52 0E 56 BA 07 84 FB DA 93 65 8C
 E0 3C 52 96 7F 05 99 FC C4 80 C4 37 07 C1 BC 4B
 7B 5D 36 73 5F AA 45 07 A1 B9 82 17 E0 AB B7 61
 28 44 F3 B0 2E CE 0E 95 3A C9 23 CB 09 53 29 55
 0D 4D 13 16 27 73 C4 D7 01 AB 0B 43 B7 F3 C4 58
 E0 FC 2E C9 94 84 E2 EF 98 D3 ED 6A 3F 7E A0 6D
 38 03 7F 83 4B 16 51 85 4A 1C 0C 3A 41 75 69 84
 29 8E 8C 90 15 09 04 F8 9E EB 76 65 C3 0F 3F 31
 38 42 49 54 E1 58 F4 F6 C6 0A 8D B5 3C 48 86 22
 84 4D D0 2F D1 00 E6 86 A1 27 1A 13 F4 27 F6 76
 F2 0E 02 97 D1 F7 F3 31 65 79 23 AB C0 94 82 2D
 CE 1A 8E 1B 9E D5 67 AE A6 5F 53 EC 7B A0 46 1F
 B6 9D DF E5 78 B0 95 58 A3 C7 D5 0A B2 D1 5C EF
 5A EC B8 85 4C 2A 9D D0 FD 07 6A DB 27 0A E2 4F
 B2 41 48 D4 C6 FE B1 EB 0C A2 1E EB 2D DD 6D 97
 CB 3B 1E AF F5 64 CC D3 55 16 2C AA 49 16 D7 FC
 95 7F 48 9B BD CA 40 99 12 88 90 2E 2D E1 CE A5
 3A 4B D3 61 67 90 79 F6 7F E0 19 9F 7C 1E 32 C6
 59 DF B0 FC 98 FB AD 65 DF 84 27 66 E3 1D 88 86
 A2 33 D4 8D 0A 53 29 03 40 E4 53 75 95 1F EC 39
 CB 0A A5 C2 8E D5 C6 73 45 28 C4 E7 8C 71 6C 55
 44 3B 46 87 C9 95 16 10 05 3F 66 75 3D 91 84 3A
 D0 3B 9C FF 04 D3 B9 95 CB 09 A3 8E 7E 8C BE 20
 75 4C 3B 74 F9 7E B1 22 57 94 85 17 27 BA A0 CD
 3D 24 6F C4 F6 3B 89 30 61 85 34 35 51 AB 1E 21
 86 9A 64 46 8F 9C 05 9F F6 CF E4 BA A1 15 CD 6D
 D8 6E AD 93 95 B1 F3 E9 43 EA 49 93 EA 03 09 4F
 95 54 23 92 48 4A 5B 1C 1B 44 4F 2D D3 09 79 F6
 E0 E0 4B BE 71 3C 6B 5D 40 F5 7F 03 EB 24 D1 CF
 E3 E3 B0 6F D6 2D 36 5C DB 35 28 62 38 EA 2C FD
 A3 21 0E B0 47 A4 CC 27 02 60 CC CC 4D 70 1D 5D
 7E 23 FD 95 8A 62 0B 9F 24 6D EF A0 FB 31 2A CA
 BB 03 16 E6 74 93 63 42 82 50 FB 4F 35 33 4B 23
 71 84 6E D3 13 09 DE 78 A1 27 B3 BE 29 0E 0C 39
 09 1A 28 02 16 50 DA 17 BA C8 F0 7B C7 99 B8 3D
 DD DE D3 09 34 0C E5 C1 59 BC 71 E6 70 C4 4B C3
 9B DE 76 5E B6 19 56 87 C2 B7 61 29 9C 75 D2 49
 D8 3C F6 2D 4C 36 6D AC 66 6B E1 3E 72 FF 57 69
 C2 03 AE 3B EA 8F F4 DB 04 9A F0 D9 4C 1C 0E 7C
 42 77 14 9B 91 16 2D B7 E8 AE E2 EA E2 38 70 39
 EB E3 67 C7 85 60 83 C1 5E 5E 42 01 5D 87 52 3F
 9A 3B FA 0F 17 4F D5 C5 C3 F0 F5 86 05 BE 1D 6A
 3C 3A A7 13 8E 80 26 AA 9D B2 45 46 75 A2 E2 8D
 4D E0 AF FB 72 5A 67 DE 81 0B FF 55 70 C3 1F 58
 99 21 A4 EB AA F0 67 00 5D B4 D8 42 95 AA 1B 7B
 8F 47 98 A5 8C 81 9E A6 57 D5 75 6D A8 E5 26 22
 21 8B AB C8 70 C0 6B 2A A1 4F CF F1 43 17 BA 17
 97 40 6B EA 59 5F A0 0D CE 2E BE D7 B7 68 AA 92
 48 D7 03 91 C1 C7 0E F8 78 5E 1D C1 05 B7 8C F1
 5C 0B 22 4B 14 5C BD 9E C1 7B A5 DC B4 1D A3 AF
 BB 6D D5 A2 38 A7 9C BE 39 44 AE 66 4C 40 93 D3
 FA 33 2B 79 6A 42 B5 45 6D E6 85 A1 6E 5C 4B 7C
 E2 8A 2B 42 48 DC 02 15 1F 36 1F 82 54 5C 19 4F
 6B A5 D5 45 82 F9 5F 1F 74 9E BD A0 D8 F1 DB AB
 E8 26 D9 2B FB 81 43 8F D4 E3 2E 2A CB 27 29 C7
 FC EC 5A B7 07 08 75 A2 DB 8C 87 5F 38 30 A0 82
 FD BE 9A A3 47 AB E8 9C 6F C2 4E F1 7A D3 08 07
 07 AB 05 50 D7 54 A1 4F C3 29 C2 47 D5 4D 3A B8
 C0 5B E1 71 4F 4D 65 DD 79 1A E5 41 92 49 8A 7B
 5F 7E F1 21 54 1A 8A 12 6F 75 D2 7A 2B D1 46 DD
 B2 6E 61 4A D6 4C 44 FF 38 5F 1E 30 F5 ED 06 B3
 8C 7F 5F D4 C0 9D 7B 0C 12 53 22 42 1E E2 89 1E
 6F 5B DA 35 08 FC BF 99 74 65 D2 F7 47 CD E0 B5
 15 56 41 DC 35 FE 9F 45 F7 23 ED 7B BE 77 88 5D
 65 89 01 71 E4 B2 F0 A0 A0 67 16 6F 7B DC 76 9A
 26 BC 05 7E 7D 20 B7 52 96 3C 99 71 71 7D 70 83
 F7 14 2E 9A 6D F7 0F 9E 1D 48 91 D3 39 BA EA 33
 F5 AF A5 DD AB 00 2B 48 87 F7 71 FF DD 43 43 97
 1A CB 94 49 FA B2 8A D3 24 86 1F 4E 1B 93 AB C8
 CF 73 92 B0 5B B5 AA 2B 9B 74 85 2B 1A B4 2F 08
 37 99 83 C9 C2 30 FB D7 EF 16 4C 98 4B 92 46 7F
 60 29 47 B0 78 B1 A8 76 73 C8 8E 1E 0E 3A 4A 3F
 15 44 31 1B C6 58 25 CA 7A 6C FA E2 1B C2 52 CE
 39 81 71 E6 98 DF 95 EF 14 D2 D8 EB BF 60 BD BF
 E2 51 DC E6 5B 92 29 CD A3 BF B3 38 30 D6 32 42
 A3 44 60 7C 0E CA F9 50 68 B9 7E 01 06 30 76 3A
 61 2E 31 B8 83 E9 67 A8 6F 18 39 5C 0C FC 46 1C
 8E 27 2B 97 77 18 BE 1F F7 CB 22 A4 C8 E6 6C 9C
 AF 4E 7C ED 13 3B CC E3 43 92 20 CA B3 8F 18 DB
 4B E3 5D 80 7B AA F9 40 56 C4 99 FD CB B5 23 EA
 82 0F AA 60 A9 E0 D4 85 31 77 BF D3 E3 FD B1 7C
 A6 72 1B 1E 59 67 23 F7 1B E2 7B 87 F8 D2 DB 3A
 18 95 5A C1 03 94 BA 67 BF D8 B9 48 12 1C 41 7B
 CA 69 62 AA B0 E1 7F AC CF CC 73 C4 A8 84 C6 22
 64 90 62 E8 83 22 5A E7 12 A1 E3 1B B2 E3 D5 8E
 C7 1B F9 44 1D F9 C0 1C 36 64 27 CB 65 6D 1B A8
 FF 33 35 B9 94 98 29 B3 F8 29 98 51 F4 5E FD 46
 E7 E1 71 41 8E 49 D0 7A 12 AA 8A 2A DD 6F CC 1E
 C3 B7 6E 64 16 F8 D4 81 E4 58 E0 02 EA E6 95 DE
 B2 05 0D 79 08 B1 3C 59 F0 EE 3F C4 66 D1 24 58
 2B C9 DF 76 4F 14 4B 78 A9 07 31 F5 6F 32 ED 66
 7B 53 84 87 70 E6 9E EE 3B 9D B1 B2 F0 7F 6B 93
 AF BA BB 3E 34 C8 7B C4 74 73 56 D3 8F 7C A9 E8
 DD D0 91 E4 AF 1B FF 99 E5 BD 82 B9 28 42 69 ED
 03 A8 80 DD B8 57 9E 83 6C 62 3C 92 BF 3B 21 9D
 40 CE C6 B9 04 78 19 7F FA F9 48 FA A6 BB 84 D9
 60 31 E9 9A C4 D5 45 7B 87 4A 49 5C CE B1 46 1A
 36 2B B8 52 DF F4 B5 B0 03 54 C5 D5 7E 71 67 2F
 C0 F2 BD F2 C6 DB 1B 8F 4F 8D 08 1A 97 93 F5 1D
 55 E2 B4 F9 1C 5D D0 E8 29 72 01 5B 1C 7A FA 92
 AF C8 5B A3 9D 81 2C DB DA 40 F1 57 49 80 0E DF
 38 86 42 F4 43 B2 E4 3B 94 EB 10 16 B7 3D 8E AE
 2A 9B 61 65 A3 02 DF 19 80 34 CA DA 8E 33 3E F7
 A6 4C 44 39 ED 75 C7 53 97 69 3D 0C 47 29 6A 19
 EE 76 A0 38 06 69 CB C6 CA C8 DD 4C F6 0C 00 BC
 F3 63 0C 5D 5D 6E 6C 92 5E D8 F2 C4 C2 9B 40 E9
 44 DE 36 78 6B B1 D9 61 EE 6C C2 6E 20 05 F9 61
 9A CE F1 37 99 AE DC E0 59 BC BA 38 23 5D 5F 19
 E2 FA 00 2D F4 CA F7 02 03 11 E2 58 AD 50 1A D2
 50 E8 36 D6 51 7E 5E E7 EF 5F 97 99 DB EC CA B3
 7A 38 0D 05 82 13 64 EF C9 A5 C5 A5 E8 FC FA C9
 4A D7 10 BF 9B 07 A7 F0 22 82 C1 92 57 83 61 52
 6F 20 47 30 E9 A5 3B D6 82 A9 B2 43 19 FD 52 2D
 0D BF 7B 2C D9 E8 DF BB 29 FF 70 4D 7D 4E 3F 20
 FB 0A 4C 0D E9 8B BF 62 F9 D4 44 04 31 31 10 5E
 F5 5D 78 AD 69 52 A2 0C 23 A8 A1 31 B3 30 47 89
 78 BE 7C E1 61 43 C5 A1 27 97 01 68 35 3E 0C 1A
 EC C4 DD 1A 61 DB 8C F3 E8 B0 A7 4D 36 DC D3 5D
 87 6B 12 0A 04 9B C1 1B 74 B4 4E B9 63 71 5A 69
 B2 E6 17 5D A1 C2 FA B6 E3 3E 07 46 56 C6 3F 54
 18 51 CD 3D 06 CB 0B 50 DA 7A 40 0F 55 04 B3 B1
 AA F3 84 71 7A 54 AC CA A3 D3 FB 75 DF 64 0C DD
 D3 95 10 AB BE A7 2B DB 7E 17 71 DF A3 DD 4F FB
 9F 29 D1 35 2F 09 E9 CA 0F BD F2 DD 69 7E 91 EA
 F7 72 FF 6A BB 7F 4D 76 67 AB 68 F3 A2 2D C8 E2
 C0 54 AC 2E C0 08 F1 99 40 BE C7 D7 B7 F2 A8 3E
 93 AB 5B C0 D6 A2 FC F0 91 CF 6D D2 D1 1D A0 F3
 82 D5 EF 65 E5 DF 7F 3C 3E 9E 1D BA 3B E9 99 9A
 47 29 3E E2 7D 9E 85 09 9C EE 7F A7 E3 71 83 2A
 31 3D 4A 15 32 1A 2F D7 D8 F7 31 3A 2A 04 20 C3
 C6 D2 2F D5 AB 06 20 06 09 53 69 67 91 9B 0A A3
 0E B6 86 DC 6F 0E 3D C0 83 5D 25 59 01 43 DD 7C
 46 A2 12 9E C4 35 D2 58 E7 80 B4 A0 E2 FB D0 92
 33 0D 8A DC 63 45 9A FD 6F A5 7E 11 0E FE D9 BF
 FB FB E4 79 CA A2 24 8D 30 16 F8 85 94 E1 35 00
 40 A1 B7 48 60 26 37 15 0E D2 09 08 75 57 7C A0
 DC 08 91 2D 5F 65 10 75 94 A8 87 E9 FD 9D C4 06
 5A 6A 23 20 0C 7B 2C EA CC 47 9E 47 91 44 B1 B6
 B7 F8 74 7A B6 BB 08 53 99 38 31 7A AA 21 6E D3
 79 E0 B7 0B 6B 08 46 93 0A CB DA DF B4 3A 63 33
 1D 70 24 CA FB 2B 16 5B E3 AE F0 F6 9C B9 EA AC
 D3 EF 21 11 5A 96 90 93 05 2C D6 43 BE 12 B3 9B
 A3 2E F1 94 82 B9 B3 01 95 0C 83 AE D8 BB F3 1A
 46 33 AF 51 F0 AE A1 BC 13 60 60 89 87 9F E6 14
 1B 30 E8 0D 60 E9 EC D5 82 40 DF 14 2E 26 F7 89
 BC 39 8B 0E 43 20 F1 90 77 8C 85 67 DB 3A DB 3E
 19 4A 83 51 25 62 D7 51 8D AE 25 D0 B1 ED D1 6B
 82 EE FB D0 0E 40 3F 67 1F 33 DA BB 40 EF 9B EE
 71 A4 BF 27 2F 1C E5 74 FD 43 B1 CB EE 71 5E 94
 CF 56 7C 8A 47 B8 75 F7 2F 5D 54 ED 08 6B 72 A4
 AC 4D 6B 80 3B 7F 5D B9 D3 40 3D 52 07 9B F6 7E
 9C BE 81 AB 5C B7 03 9E 88 95 6A 9C 6F 3B 40 AD
 12 0E D7 8A 7A A8 25 99 A2 7C 02 94 2F B0 3A 7D
 B1 5B 2F 46 4A 5C 7A E2 CD 2C 01 95 0F 99 80 4E
 BC 91 FF A0 67 55 86 E1 4D 9E D6 DD 01 58 3D D2
 BF 34 F1 7C 09 3B 38 2E 7E BF DE 01 F5 0D 58 58
 99 7C EC 13 2E 1D F3 81 DE 2E 33 51 B0 6E 31 5F
 03 99 B8 47 57 B7 7E C1 7B 9A 77 64 00 23 FA 59
 3A F2 AD A6 4E BA DF 6B 09 3C F5 84 EE 4C 6A 37
 F0 37 5F D7 E6 98 56 2D B5 0F 65 D3 2A 06 B6 07
 30 63 7C 46 49 ED 32 0D 1C 77 AD 27 43 DE 11 4D
 62 3D 31 9B 6D BB 5C 40 43 8D C8 FA C7 4D 02 5A
 DE 99 A3 FA 39 57 EC C7 DB 19 A9 EA 13 9D 14 1F
 34 A1 92 B6 2F 3E 4D 8C 1F 6E 09 3C 2F A0 87 3C
 4C DF D9 33 F9 CA B2 9C 1D 51 F2 1F 96 CC 92 12
 26 12 C1 92 25 4C 95 0F 90 99 08 4D CF 6A 9C E5
 EB 86 23 9E 10 A0 B0 D8 5D 61 84 8D 80 E8 E3 6A
 D2 59 41 77 CA A6 A8 41 D1 FC A7 FD 92 98 48 1E
 60 AC 5D 88 80 43 BF 12 2E 79 58 C4 09 FC F4 4D
 54 40 9C 4D 14 E1 66 A1 AE 90 DE 68 B3 C1 98 C0
 6B 2C 97 41 BB E6 DD 3C BD F6 74 55 F1 4D 8D 07
 BE CA 35 0D 65 91 1D DB 42 E7 CF B7 46 7C EE C9
 DF D9 E6 8F D4 42 2F 3A 37 E1 20 20 E6 F7 D3 91
 38 62 53 99 4F FB 87 AF D9 36 A4 F8 F9 A4 57 38
 FE 1C ED 8D 14 73 69 91 12 94 49 03 F3 93 9C 22
 A5 16 D0 7F 54 32 72 74 00 2A C6 2F F6 51 DF 7F
 27 4E B7 D2 6E 7B 63 3E 70 0B AE 95 69 1B 59 98
 0F EB 2F 53 17 E6 C7 70 B0 EA 7B 10 05 FB C6 69
 3B BB 1A EF A5 23 5E 5D 26 AD 83 6A AF 53 9C FC
 AC 4B 6D 17 A7 17 D1 91 FD 41 C4 9E 09 B3 1F A8
 A8 89 96 37 38 2C 27 48 06 56 9A A7 17 0B C0 A8
 13 7C 8E 37 A8 22 FD E5 70 68 91 ED 50 3C 80 F4
 E2 4E DA 0D AA B1 F5 77 A7 05 AF 09 32 CA D0 1F
 E6 D8 83 C2 3C 16 83 C6 99 15 16 E5 E9 8B 8A A5
 DD D1 F6 FF 2A 5F 27 18 2A 2F F6 B0 9B 42 9B A6
 10 96 D2 09 56 BB 2C F6 80 E1 9D 62 02 DD CF 79
 41 CF BB 27 1F 42 FD 7E 5D 7A 0C FC 0B E8 CD 95
 FF 71 02 5D 7F 3F 4D 0E 1D 63 99 08 9C E0 EC 9E
 AB A0 6D D3 FC 9E 8B 41 4C AE 87 3E D4 DD C4 81
 36 67 2C F9 0D FC C4 71 D3 27 B3 4A 04 27 4D 8E
 09 E6 44 67 07 86 24 99 4F CE F5 0E 36 CB 8A 9B
 F7 57 B6 32 8E 10 A6 92 40 DB AE 79 52 A5 71 AD
 6E 74 43 96 97 FD A0 AF 6C 07 C9 42 A7 C4 9F 6C
 26 6B 75 FA 93 3A DF 6B B6 79 D0 6C B3 97 B8 F2
 E0 42 EB 06 6A AD C6 2F 39 BD 20 9B 07 A3 7C F2
 18 55 A8 74 B2 D1 BC 98 09 48 91 01 81 DC 30 57
 41 A3 F2 98 73 4F 8E 4E ED AE B8 33 76 24 20 49
 E2 AE F1 26 30 F4 F2 42 CF 14 70 14 EE A0 EA D0
 A1 58 08 7E 32 BC 63 0C 8B CC F9 85 F7 07 02 B8
 80 25 55 C3 2E CC 2D 66 69 42 E5 24 08 0E BF CB
 E5 33 D9 1E 62 8F CE F8 D7 0F 8E 63 A9 05 5B 30
 4B 88 47 9F 6C 79 7F 5C 3F CA D7 C9 7B CD FA BC
 46 26 13 5B 04 9E 0F D2 19 74 65 C1 FE 31 1D CA
 6C 56 24 73 08 96 DB 53 BD 48 EB A5 C3 06 F2 1C
 04 4B 0A 83 C4 4C AC 77 25 FD A2 74 E5 D6 0E 54
 88 2B 3A F7 EA AC 6C 43 8E 72 E4 8C 35 D3 2A 9A
 CA D7 DC 1F B8 3F 57 BD B5 0E 1C 9D 07 1F 1B EB
 0A E3 77 AE CC AE D4 D2 55 3C 11 C7 14 A8 27 FE
 2D 48 8E F0 F8 2B D6 D9 53 8E 77 92 A4 78 6D FF
 9D 47 CB D8 33 E9 B0 91 2F EF 35 F7 6E BB 11 DC
 D4 84 18 3E 04 8D 8F E3 94 96 EA DF FF 1C AE D6
 20 A6 8B DB 88 31 7E 0D 2A 33 4D 09 50 CA A8 62
 3D CD 28 56 3D 2E 69 E6 48 E3 CB 8F 3B 11 F1 40
 3B CE 06 6B 7E C5 7D 0A B7 11 E0 15 66 73 B4 8A
 D7 4B 87 FC 6A 6D 30 A9 79 76 44 DF 02 C0 24 4E
 38 B1 9B 20 66 75 F2 C8 75 CA F4 59 CA 8D 8F 18
 5C 8C A9 A4 F8 04 23 7C 90 54 55 A8 89 44 FF 8D
 A5 09 61 F2 AC F2 D2 39 4E CD B9 FA 85 FD 62 BD
 75 CB 80 AC 3D 90 6D CD AB 30 2C 83 A4 B5 4A 3E
 25 38 5E 6E CA B3 87 28 BB DD 0A 2A A5 C7 A0 67
 E6 DB 69 45 1E CD 51 64 E9 BC 77 DA 44 A9 CA 2D
 7B 2D 63 2E D0 65 AA 7E 86 17 D2 04 06 AE 8B A5
 93 50 D9 F9 CF 1C D4 00 8C 12 81 17 C3 CF 31 AB
 07 31 AC CB B2 52 78 9D CA F4 8C 81 55 43 E2 96
 9E 7A 8C 7E 33 D7 A1 16 23 A3 F8 BF 4C 97 CC D3
 99 EB EA F3 31 43 34 B3 1D 2F 8C 7E 90 97 5F 81
 70 FD 59 C3 13 7C 4D B9 F3 6C C2 6D 1A BA 7B 4B
 7D 20 CC 0E C6 23 03 56 D6 CD 6A BA 14 09 55 4C
 4E 0B AA 95 CC 90 01 06 83 96 18 DD F2 FB F0 2F
 5E B3 CF B6 3D 6E 79 32 6E 64 4D 64 F5 43 24 3B
 1E 37 9D 84 6D 47 84 49 BF F6 4E 50 76 EC A6 B2
 97 A1 11 D3 E4 00 07 B7 87 FD 0B A2 D5 D8 9E D3
 88 5B 6A CA 45 59 1F 01 68 07 59 18 5A 60 12 E4
 68 38 7F 5E 7E 7E 9E 84 D7 3E 28 35 44 73 9B 30
 57 8D FB 8D 78 4E 05 FA 8D 09 3D 37 4C 46 C9 A6
 0C 0B D8 C7 39 3E 16 24 37 AE 8C 26 3B 2C CA DD
 72 83 EB E9 56 0D 5A BB 5B 98 F6 A9 4F 21 E3 98
 0D FC 9D 21 2C C3 46 70 EC ED 8F 34 3B DA BB BC
 A0 B5 51 F5 AD EF 91 98 DE 15 84 34 54 6F 60 D6
 71 FB 4C 4E 71 E8 6E E7 8A 4F A8 B3 53 B8 59 18
 02 AE 4D 10 03 7F 52 3F EB 76 DB 88 3B F9 78 42
 36 6C 91 F0 17 6B 01 7C 7E C0 1B 4C 06 2C 5C 6A
 68 B4 4F 7A A4 F3 9B 05 1B 54 8C 55 0B 5D 18 09
 71 87 7D 6B 84 7A AF 4E 2E FD 45 08 A7 7A 7B AA
 17 44 E9 F9 A5 D9 9D 70 5A 27 92 4F DA 8F 25 37
 2B 81 73 A4 56 18 28 7D FB E8 41 9B 6A DF 33 F6
 24 E7 BD B3 C5 CF 4A 4F A4 C3 A2 87 EF 63 B9 63
 24 E4 7D 3A 09 EB 11 96 80 CC 13 46 74 B7 3F 46
 AB 6F 71 0D 64 A4 CD BE B7 88 05 7D CA 5E 95 F9
 A5 81 BF F7 DD 6A 55 D9 05 FC BD 7D BC 45 B6 DA
 FF 0A 45 8F 8C E4 59 6D 6E 8B ED 68 90 55 B5 27
 62 56 4F 47 8D 0F BA A8
* End 88775905 3851725497