* LTspice Encrypted File
* 
* This encrypted file has been supplied by a 3rd
* party vendor that does not wish to publicize
* the technology used to implement this library.
* 
* Permission is granted to use this file for
* simulations but not to reverse engineer its
* contents.
* 
* Begin:
 AD D5 A5 BE 8E B3 6A 4A 67 B8 3B 90 32 0D 4A DE
 A9 54 9B D9 6D 6C 0F 6B B0 1F 8E 54 69 6D DD AA
 54 85 57 E4 F5 46 28 63 77 38 EF 88 F6 B3 AB A0
 F6 5D 17 8A 04 FD 8C 89 E3 42 60 F5 65 43 88 87
 A9 43 19 65 DE 2D 65 1E B4 47 91 8C B0 15 A1 5E
 63 08 D4 49 CC FA BD 5B 37 86 2F 87 CD 8F B9 FE
 4A 2A 1F 5F A3 65 B3 3A C4 34 1B D5 D7 B9 33 AA
 0C 68 0E E1 41 2E F3 54 0D BC 21 D9 E7 CF 21 CE
 1B 5D 26 F0 13 D2 59 2B 88 05 65 AF 3F 9A 68 DD
 DD 3F A9 0A 5A 4E 09 89 BE B3 93 13 83 03 BF E9
 DA A7 70 88 1D 92 C0 74 73 AD BA 5A A4 0D C0 78
 B6 FC F5 AB 5F 9E 8E 2B D0 8C 52 A5 4F 31 9D D8
 36 AF FC 42 28 A9 93 EF 6E 16 C9 24 C3 2A D8 04
 7D 76 13 BD 09 FF 2B 5B CD 37 08 79 C7 6F F6 41
 ED 1B 92 55 38 9F B4 64 D6 96 5F 28 D8 D4 78 D2
 D9 08 C6 5A 1B FB 87 E0 7A 71 A6 5C 45 35 B7 A2
 63 EA 4B 12 EF 49 C7 E5 61 7F 28 3A 2D ED 6E D2
 BB 19 70 A2 3D BA 9E 4A DE 1D 1C CA 7A 0B 8A 75
 57 9F 6A 76 E6 15 57 D5 6A 55 AA 8F 21 51 E4 6D
 0F F5 00 3E 1F D6 70 85 22 EF 1A 05 FB BD 03 1D
 26 0E D7 47 42 D4 C9 A1 37 0C 6A D1 E8 AE B5 67
 BB B7 4F D2 F3 62 D2 97 D8 19 8D C8 FC 10 03 6B
 4F 27 82 3E 64 13 39 F0 44 1D 70 50 A8 C3 88 7B
 68 9D 79 88 DF B4 70 84 04 52 31 2E 7E 6D 1E 0D
 0C 1E F6 D5 A4 55 D5 43 53 10 73 5F 25 BF 51 6B
 C4 18 B3 03 43 2B D5 E5 3B 78 E5 0D B8 89 F1 4E
 28 5F A0 70 8A AF D4 C8 9F 22 29 7D 93 7D D8 71
 A3 33 9E 58 25 02 90 78 50 D2 5A 7D 5E 35 AB E2
 12 FC 2E 22 AD AF 4B 97 80 8C DB B4 85 5B 41 DB
 88 44 99 6A 08 28 08 65 B0 6A F9 D5 14 BF 34 39
 74 5D 34 C7 7C 5A 44 EE E0 78 F0 AE D4 66 C4 8F
 18 48 C6 94 B0 62 D0 45 53 C7 F6 E0 7F 09 D4 0C
 F8 A7 CD A4 22 28 26 C6 60 CE 17 A1 EC 64 6C FF
 FA 1D C7 9F 44 BB 84 34 92 60 68 54 17 95 B6 14
 ED 1B EE FD 24 6E CF 61 40 09 5A 4C F8 6E 92 CE
 11 A2 38 74 B8 CA 68 70 81 3E 6F 40 06 14 D0 2E
 F5 CF A6 0D F5 05 6E 36 CE EC 01 53 F1 5C 05 5F
 3C 7F AE EF 71 5B EA 82 81 79 31 76 3F C4 6F 83
 72 9C 98 AF 1A 94 DF 61 95 8D 4A 36 C6 D0 76 C4
 8B F1 45 09 DF E6 58 06 FF A2 AC 87 CC 7D A2 65
 A4 6E 8E D1 A2 8C 98 E6 89 7B B3 4D 75 19 6C 58
 44 64 02 C8 16 34 8D 3D EE 83 7D BD 3C 14 9A 13
 36 4E EA B4 AC 86 91 E6 81 06 CD B4 C8 A4 30 FD
 1C 6D 0E 98 84 CA 8F CE 89 AD E7 D2 8E 95 C5 E2
 02 C1 D5 A6 D6 93 D9 AD AF 85 16 CB 18 B2 58 DD
 F6 DB 0F 4F 7F 4B CD 31 37 F4 30 B0 7D 1A 88 8B
 FB C0 E8 A0 91 1F 68 D9 9E 40 26 82 34 D1 25 EB
 C8 19 0D 04 FF C2 63 85 C9 3E 8E 3F C6 68 82 90
 34 E3 A4 22 7D 9D 84 50 03 A6 0E 5F 98 98 AB DB
 ED 56 81 8A 3B 3F 4C 2D 30 A2 AE 35 C0 C4 E2 A9
 D9 4B 3E E4 79 A5 F3 72 95 49 57 FF 24 46 3E 0A
 A3 F8 E1 74 CC FA 09 EB 74 7B F8 31 D0 23 46 6A
 33 06 23 DD 1A DA 66 F7 57 9D 74 69 C7 AC 47 95
 7A 72 DE 61 F0 24 8B A8 4B 12 75 F3 14 E0 7D 4F
 46 8F B1 AB A7 CD 09 53 0A 80 BF 39 BF 72 6D 42
 95 BF 44 1C AA CB CF 9B FE 76 20 FB E1 97 19 64
 A2 2E 65 65 09 B5 24 BA 36 BB 53 4A 74 0D 10 0E
 4B 0F E8 F2 89 0B D8 BB 2C 63 D2 10 08 96 9E 75
 0D 99 BC 1C 66 51 64 72 B3 BA 16 4E 61 31 BE 7E
 76 92 99 25 A1 9B 81 C7 D7 42 7E 6B EB CA 1C E2
 76 EA 55 58 CD 24 F5 77 4A C6 8D 3A 62 11 48 E4
 F1 79 C5 DB 06 D4 9B 35 7E 8C 99 C6 27 A6 BD 07
 72 EE 8D AC FD CB AE A5 CE 46 83 DE 75 7B 52 4A
 78 5C 77 29 1F FB 4B 68 85 73 47 82 8B 89 47 2F
 28 19 0D 64 40 B1 2F 6C 14 E2 00 F5 8D AE 3A 9A
 89 94 F3 97 68 E3 57 47 2E 8A 40 84 6A 31 2A 4F
 2A 1A 19 A0 1F FF 0A 30 C8 5C A3 89 A6 60 74 A5
 78 1F 9D 77 BD 5B 46 3A B7 AF 82 81 50 36 38 FD
 B9 29 30 FB 46 91 1E A7 8F 2D 9D 64 CB 0D CC 51
 BE FA 9E 32 F8 DD A1 DE 2F A0 D6 1E CC 16 30 B8
 25 2A B7 9C C8 F8 F7 27 DE 0A 1F F4 1A C1 D9 D2
 EA A0 DF 21 EB 20 5C 68 3C EA F9 05 F7 62 1C 3C
 27 CE 04 6F 51 BC 89 D5 BB 60 D3 DB CA AB 16 82
 AA 0C 40 E3 C6 45 FE 4B BE D7 B5 BD 9A A2 B6 E4
 A3 BF 0C 59 8F 05 6F 94 78 A3 55 93 F0 0F 30 1C
 E3 07 CE 49 F5 EF E8 DD E0 8E B3 9D 3F A4 A6 F9
 32 87 DC 97 3B 7D 8F 3D 97 3E 09 0C 8A E0 E6 0F
 FF B4 02 54 B5 67 63 39 31 52 C7 BC 81 F0 E7 61
 B4 12 94 FB 59 C7 59 93 B8 4D F9 90 2D CC 6F 39
 A6 C3 3B 1C AF EC 13 28 D0 04 14 2D 4E 03 59 6B
 B9 9E 1B AF 8D DF 94 49 64 E5 FC D4 90 44 7B A7
 6E B0 51 40 3C 46 1D 6F 46 0E AB 23 92 D4 51 7F
 A0 75 20 F3 05 5B 6F 49 C6 7B D5 A5 E5 6F 8B 25
 20 77 92 B2 4A 17 B2 EF D7 DE E1 F7 F7 1F 71 15
 11 4C 47 2F A4 D5 70 25 5F BB 1B 54 AA 94 4B B9
 F4 08 77 5B 41 DD 8D FB A3 6E 20 F6 3B 90 B6 AC
 18 75 BD 3D DD 84 37 1D 04 F1 09 B7 6A 4A AA EA
 BD A8 D2 B5 CB 5B DB 81 BE 77 E4 3F D4 DC 49 69
 4B E3 15 CC FB 1E 43 EF 39 BA 12 AF 46 49 48 52
 19 9F DC 49 78 B0 E7 74 A7 E9 35 ED 97 54 38 A8
 11 44 DC EA 5A 6A 3B CD 8A 76 A2 0A 60 8F E2 1E
 F6 DE 6F EA 53 EE F7 49 DB C8 3A 55 27 EB 47 A9
 46 77 29 1A 9B 11 40 7F BA B3 F4 BD 66 F8 63 43
 F7 8C C5 4C DE C1 79 59 17 3B 1A 6A 2E B1 F9 B1
 92 C8 4E BB 03 D7 3E 70 EA 99 14 24 6A B9 A1 9E
 28 E1 92 50 C3 83 A9 A2 FC C6 8D A6 95 EE 1B EF
 2F 18 8F D8 4E 0E D1 5C FC 09 93 63 14 48 26 43
 A1 08 46 49 6C EC D8 75 46 24 3F 26 64 EF B0 E7
 F5 BA 74 CA CB 90 D2 66 98 48 5D B0 A3 2F B5 28
 D2 21 4F 99 31 37 AA B1 20 2F 88 8C E1 3A F9 CB
 22 EA 6F 17 21 31 B0 2D C4 D1 CF 39 B1 7B 97 6C
 B5 7F 31 A2 60 15 79 BB A5 E5 42 40 E6 79 7C ED
 8E F1 8C DC CF C6 F3 D1 1E FF DA CA 71 10 E7 A4
 A7 48 9E EB 6B 65 5F AA 8C 1A 99 99 B1 4E 8D 31
 F7 8E 4A 5B 7A 55 3E 0C DC A3 9F 0C FB B3 F9 EE
 B6 25 C5 B2 2D D1 64 68 8C F2 CA 83 0C C5 42 40
 0A 71 EF C3 F7 1C 6B 0F 74 EA F5 2B FF 3B C6 FE
 78 7C 4F 01 5E 52 11 02 A0 00 BA AD F4 C1 78 B0
 AA 20 E9 19 4C 53 FC 4E 6C B4 42 69 07 26 AD 59
 8F D9 38 96 F6 22 3E D2 D4 64 55 78 8D A7 AD FD
 8E B4 83 35 BD 12 85 6A 9D 55 C9 FA 4F EB F2 D3
 ED 92 0F 16 74 DC F2 8F 81 E9 57 BD 63 92 66 BE
 75 F6 19 1D 64 F0 FB 30 B2 DA CC C6 51 D7 7E 8B
 2E D8 A6 13 C3 7A E3 29 4E 41 02 61 C2 BA 61 07
 00 36 53 5E 88 42 09 B2 32 29 77 C8 D8 B3 E1 37
 3A D4 23 51 54 13 2E 89 15 AA 41 8B B1 08 FB 05
 B5 7D AB 87 88 56 A6 9D 2C 64 E4 AA 10 58 21 D2
 89 90 4C C1 74 AD 3F 37 B3 58 C7 9A E9 36 35 E7
 02 E2 53 20 0F 58 8B 57 4C 6E 31 11 95 28 D9 99
 A5 18 E1 09 2D 6D 63 E7 70 47 47 6A 49 0D 59 62
 16 36 2A 71 77 4C 19 68 C6 C4 24 2C 76 1D 36 92
 A4 0B 60 DA 5F BF 2E 0D 63 C1 F8 E0 B5 76 49 F3
 75 AC 8C 1B 8B 8F 71 2C BC 57 AA 36 07 2D 83 CE
 6B 9B 19 EA D0 D3 A8 21 82 AB BB FB 3F 8D 77 5D
 18 77 30 21 70 9C 5F B2 58 5D AE BC 3C B8 1D FD
 D6 11 98 EC 79 B3 2C F6 88 C0 EC AB F1 77 83 F6
 E1 E1 74 98 31 B2 EC F0 41 4D 70 14 FD 60 D7 15
 50 D9 50 CE 54 9A CD 3B 1A C0 F4 8C 39 DA 70 48
 B1 C1 8A 84 37 E6 19 73 E3 4B EA 00 0B BA 9B D0
 46 12 60 9D 12 52 61 1D 1E 24 88 3D 22 63 A3 EF
 11 9D 75 F1 F6 2E 92 A0 FD 99 E6 71 D8 4D 67 6F
 EF A5 58 D5 97 BF EF 35 1F CD 6F E6 67 AA 41 0A
 87 C3 D6 87 51 FB B6 6B 29 49 C6 27 EC E2 1B B5
 D2 FB AC 11 0F 43 F5 F7 A9 0F 38 D7 27 0C 6D E1
 75 0C FD 07 12 96 4F 25 A8 DB 7F 83 6A 3F 18 F6
 27 47 D5 AC B9 74 D1 4C 7C AB B8 2E E4 A4 F4 4A
 F6 FA 08 97 B7 9D 02 13 42 D2 54 F0 3C 72 8F 9D
 30 66 27 9B 82 16 D1 50 FE 59 B5 0D 52 7C F9 B7
 D4 7F 2B 17 9F 6A F7 27 8C FA 3E E7 6B C4 F0 64
 6F C0 6C 9A 9F 57 DD 76 8A 5A C9 9E AC 74 8A 49
 E8 04 22 C7 68 31 35 05 06 17 9F DB 9C 0F 33 63
 9A 54 73 91 36 3A FF B3 5B 00 54 76 64 B7 91 9B
 33 A8 B2 39 3F 4E 8B 81 84 7A DB BD BC 6E A3 AC
 98 EC 69 A7 F9 F5 CC CD 80 D7 DC DB F8 48 D3 02
 6B DB B7 DD F2 A5 73 37 34 EA 50 5D 5B 59 95 33
 4F 30 73 73 CE 77 4F D0 5C CD B6 3F 50 35 F4 2C
 41 77 CF C2 D3 17 57 78 35 86 28 AD 79 45 B4 EE
 D4 5F F1 0F 5D 91 96 32 F4 58 D2 F8 48 DE DB 91
 59 5D 9C D2 1A 68 C4 B2 55 CB E3 94 02 E2 EE 24
 F9 0F 98 69 10 E4 4C 41 EC E6 B4 21 CE 68 10 C0
 EC E2 0C 79 70 94 67 C5 FD 71 97 38 86 2F 40 E7
 90 2E C0 77 99 9D 66 D8 FF 4F CC 1F EA C2 8A D9
 06 5A 79 09 F3 37 26 CE 06 FD 5F 22 8A E0 A3 B6
 0B 28 4A 0E A1 3E 8B 30 06 EF 37 D2 AD 3A 71 61
 D4 F4 07 43 EA FF 94 01 EB 70 A6 21 C8 03 DF 41
 57 69 F2 BF E4 DF 10 45 11 4A 85 C9 F8 84 2E 7C
 E1 D9 24 67 CE FA 2D 11 E6 30 62 91 65 98 F7 1F
 D4 20 18 CD 52 49 2C 50 0A B2 82 92 71 84 89 B2
 00 4C A5 92 59 9F 1D CA E4 25 30 87 0E 5B 91 C3
 0C 2A 30 44 4C B3 27 98 49 29 01 26 B7 A7 42 4E
 EC 4C 31 DB 2C 94 E5 E1 75 3D 97 67 A1 18 87 C5
 F5 2B BD B2 0F 9E 61 07 5D FA BF 39 BC 22 70 E4
 0D 32 70 6F D6 35 F7 F2 71 6F 35 4B 6F B2 5A C5
 0F 3A 58 B3 27 59 46 E5 8C F0 3D 46 76 BF CB EC
 6A E2 C9 A9 08 92 20 3A AA 1D 3D BE 25 3C 24 48
 41 06 B6 AA 83 C1 AF D1 7E DC 9D 1D AD 46 16 56
 FA DA 5A 30 4D 27 26 9D D1 93 B8 48 66 E3 CE 9A
 DD 43 41 86 64 C8 6E BB 5F C5 D0 26 F5 98 63 47
 25 49 B9 9C BC E1 2C 24 07 EF D6 5E 28 CD 02 78
 87 0A 76 55 AA 24 F6 56 DB 32 1D DB F9 2F B0 4F
 E3 3D BD 85 C0 45 F5 97 BC F6 99 E3 9E CB FE 86
 E8 6C B6 FC 2D F5 C2 1D 2C A5 E0 BB 73 FD 8D 6B
 0C 43 9B 1E 30 13 1F F4 23 5A E7 04 2D CF 96 B4
 16 72 5A C0 25 96 0F 70 21 EF D5 1D 56 A8 DC 69
 E5 52 FE 9F 20 7B 15 89 59 5A 08 40 D5 C2 32 40
 9A D3 31 7E EE CE BA 78 3A 33 EF 50 AA AE 88 A5
 BC 68 CC 6D C4 B0 51 07 32 4B 4C 73 BD FA 4F C0
 41 76 13 D2 AE 89 8A 08 A8 76 BB 7C EF E2 45 48
 D1 1C 78 1F 4E 45 12 1D 58 DB 54 96 EE E9 A8 8E
 EE 03 FF 14 CC EF 3C 0D C3 4A C8 A7 8D 75 33 9D
 83 4F 3C E5 8B 39 9D 69 F3 A2 9D 3A D1 F3 DE 0E
 AC 1E 9D 9F 5C D4 DE C5 2F 90 AD 0B F1 8E A7 24
 9A 2D B6 B2 4F ED E3 E8 DA BD 88 83 F2 44 44 BB
 FD 7D 16 8A 02 54 E3 B2 05 DB 3B 4E D7 FB DA 23
 81 C6 56 CD B3 98 97 7B 10 DB 98 6A C2 42 04 93
 05 69 E7 49 7D 4F 91 B8 04 F4 B4 AB 9C 19 D1 D4
 F7 AC 6A E0 26 14 69 6F 19 B8 60 0E A1 A3 D8 09
 B1 69 3C 7A 6C 65 5B 27 0B 5F B4 53 40 0E 12 BE
 9C 9E 3B 3B 75 A0 16 8E 56 C9 47 4C 69 BC 74 8E
 DE 62 78 81 6A 51 A7 87 BE 54 FE B7 DD F6 62 08
 B8 6F 14 BC A1 86 66 06 6F 29 9F 9C BF D1 0A 6A
 77 90 EA E3 74 37 36 C5 3E 29 CA 2F 6E 9B 37 D0
 73 6A 83 FA A9 36 09 25 18 8D 18 7F 29 D5 29 DD
 AE 59 0D B8 6D C4 34 C5 06 B7 E0 12 D5 7A 90 3B
 99 AE 05 35 EA 9F B3 8D 8D 70 AD 60 42 82 4B 99
 97 DA CD 3C 08 C9 C7 56 6C 3F 17 1F AE 56 49 9B
 5D 81 F0 73 6C 27 95 A1 2A 5A 23 DB 86 9E 43 51
 C9 7D 59 39 3D 24 7A 75 A1 22 CD 54 C4 CC BA EE
 1C 21 B1 13 E1 84 CA 92 6E E9 D7 2B 0D 5D 88 A7
 43 83 28 48 A0 CE A1 D5 50 0B D7 B3 A4 72 AD 6D
 4A 7E 4F 3E B5 AE 13 1F 26 0B 2A 81 7A 14 56 09
 1A E1 70 F9 7A C7 75 62 AC DE 93 13 24 A9 76 1B
 2C 67 FF 9D DD D6 9F 10 E4 3C 05 DE 69 58 20 36
 1B 15 E4 29 B2 0F C7 7A 9C EA 2F 8A 51 0E AF 3A
 BF 75 52 CC 90 B6 45 F8 12 26 14 38 AC 6D 87 CE
 E7 72 B8 D8 9A 37 36 71 C0 0C B7 E6 A0 41 99 62
 D8 6C D6 D9 EF 0B 94 A7 CB 2A 52 B7 83 59 CE 53
 63 EB A0 CC ED 7D CB 5C 67 62 F4 63 E3 4F 4C C4
 BE 8E D6 C2 AC F6 A3 87 2E A7 54 C9 09 B5 63 80
 BC 9D 90 BF B9 B0 46 D1 E2 44 35 A5 72 37 4D B2
 34 41 07 5B F2 46 B6 92 D6 C8 75 30 D8 1C 87 C6
 94 CF 7E 6A 84 6A 3A E4 95 7C 4A D9 D1 74 64 E3
 F7 F1 AF 65 A0 81 A7 C0 48 74 93 1C E7 C8 75 F9
 9C B4 DE B1 6E 67 82 FA A2 62 63 AA 8A BE 19 8E
 36 C4 84 95 65 E9 82 06 56 1A E2 85 F2 2F DF 22
 6E 97 E8 C8 13 F2 8A 53 E1 22 A0 C3 FF 50 46 49
 8D 22 A9 64 48 98 9D 97 AC AE 1B 71 66 74 07 46
 95 2D E8 EA 8C A0 E0 23 EB C6 BE FA 2F 52 E4 40
 C8 E0 EB 95 4B D1 F8 D1 30 05 D5 6C CD E9 1D 6F
 B8 BC 96 B1 61 5C BF C6 86 0E B0 CD 50 4E 4E 41
 6E F9 A2 35 16 10 B5 68 B5 A0 B5 28 56 FC DE 2F
 83 5C 61 AA 5C 4E D0 24 82 EA BD 3A 55 3D 86 85
 A8 8F 4E 93 5A 6A 99 45 2F A4 B4 F1 10 F7 9D FE
 55 64 DE 16 75 65 58 3C A4 93 DE 62 6C 6F 37 87
 78 1F 1A 6E 1E 66 4C 21 78 54 D7 5F 22 C9 28 52
 51 4A C7 16 8F 32 36 09 C1 C8 F2 5F A8 B4 8C 14
 B2 FF F7 C4 67 66 91 BA AE 06 46 A3 0B B0 19 2D
 78 1C 91 71 7B 35 00 A5 0E 65 3A 40 CF 31 92 7B
 D7 8C FE 17 A9 E5 6C B7 7C 97 96 0E 0B 8C 35 70
 4E 18 FD C4 D2 8A 31 54 9F 6D A7 67 00 8F A0 99
 78 3C B7 F4 A5 6F BE 26 DC 93 C5 C9 D8 C2 B0 C3
 A4 CE 3C 10 DD B3 4C F7 75 EC 83 62 D7 F3 7C FF
 14 50 F2 25 03 12 F2 2C E8 98 FA AB 8D 7A D4 A0
 25 67 27 57 FB 4F F0 D7 6B BF 4E A1 3E 57 DF 27
 C2 A6 72 E7 A6 D4 A7 5B 4B C3 D1 37 65 C6 55 12
 0F BD 03 39 04 7A 63 F6 B3 D1 C2 14 86 74 5E 70
 FE E4 1C 01 85 E5 65 F1 65 07 77 1E 4C 58 19 78
 20 7D E5 80 14 2E 88 76 8B CF 33 C6 79 55 59 A9
 73 BE CE 84 85 DB 72 75 B9 AF 63 09 9A 76 5D 38
 5E 82 26 C9 85 86 CD BC 82 B4 99 3C 5D 40 4D D5
 10 02 9B E8 D0 C7 96 96 E4 EB BE 06 8C 33 45 3C
 46 94 E8 FA C4 37 C1 E4 1C 34 65 1A E9 04 13 C1
 E0 3E 41 90 AA CE C3 EE FA 17 39 64 DB 64 A0 F1
 D5 C4 BB 16 75 93 6A 74 CD 28 59 1B 26 27 CF EF
 AD CA A6 98 6B EC 1C 81 20 2E 5B D5 EF DF 6B 11
 A2 87 1F C7 C5 37 41 45 CE CB 09 9B 7F EE 35 2A
 E4 3A 26 75 F2 83 46 CE D4 FF A2 9A BC B9 22 FA
 0B CF D6 DF 6D 4C B8 63 96 B1 D0 BD F6 35 15 59
 CB 84 08 13 4D 50 34 24 65 D2 BE E0 FF C9 08 EF
 34 7C 85 53 17 00 13 81 8F 9C FA EE A1 13 9B DE
 0F D2 BA 1E C6 99 00 28 B1 EB 16 63 1E BE D8 ED
 9C 31 DA 4B A5 FA F2 5D 28 45 C7 B3 1D 30 D6 70
 C9 F4 07 AF 7A C4 27 60 D0 D9 C1 9B 90 46 AC F0
 14 B6 CD 7F 0C 93 A6 26 90 24 DB DC C4 3A 30 FF
 28 F1 96 FD ED 6A A2 DD 7D A1 47 28 C1 29 4B DF
 02 2E 21 8B 40 CA FC FD 9F 97 68 6A 93 15 A8 C0
 F3 4A 14 E4 7C E4 80 3F 9D 0F A0 CD B3 22 57 01
 0B 1A B3 BF 9E A4 00 42 C9 D6 05 5C 45 43 33 0D
 EC DD B8 76 B2 2C 34 B9 E9 87 B5 46 B9 AC 18 6D
 67 75 D0 AB A2 30 E5 F0 BE 34 29 EA B1 9D 1A 68
 AF D7 D2 E9 AE 98 68 C0 9B ED A1 8C FE 4D E7 3A
 F4 03 4C 95 FA 2D 5B 07 95 00 47 AA 2D 30 C3 E0
 67 45 68 1F 74 D1 4D 49 B7 14 09 D4 B3 78 BC EE
 E7 84 47 28 53 C1 41 C5 E4 86 3B 38 F3 F2 01 AA
 76 66 F5 5A E0 6D AD 0E FE 98 F7 D0 48 06 B4 7A
 78 10 9E F6 FA 10 E1 C2 C7 09 A1 CC FA 44 DA DB
 AD DF 3C 36 66 78 F0 80 57 4B 8D D4 83 2A 83 79
 1A 58 97 21 16 3B 04 E9 86 D1 8D 2A 0A 82 B0 F1
 FD D9 2D B8 D8 EA 5C F8 E6 55 46 F2 90 6D 1A 0B
 69 42 B6 2E 5C 97 BD 95 FB 25 37 83 C5 18 50 41
 F3 42 CC AA 2C C7 3E 4B 27 7E B5 74 73 71 FC F7
 FA 23 3D DA AC 23 96 63 74 D8 03 C6 8B 7F F1 0A
 16 37 B4 B5 4D 0C CD E3 4C 5A C9 CE 47 FD B5 9A
 3D 76 0B 19 55 7C 44 47 0F 35 6A 5F BE 2F 85 EB
 39 96 52 B5 E6 99 21 17 A7 20 22 61 05 4F C5 53
 A6 C1 5D BC 70 35 9E BD B1 9D C8 79 2C 7A BB A2
 64 89 51 24 FF C2 5E BF B4 DD 53 18 EF 4F D2 01
 9B E7 46 14 CB 9C BD CF 93 69 7B 88 8B 0B 1A 66
 9B 1B 93 34 29 97 51 B3 C0 14 B3 1A 4B 38 E0 C2
 72 4B 7B B9 C2 E8 C3 4B 8C 36 7F 40 54 CE A3 E8
 D5 C8 DC 27 4E 39 E3 4E 0C 9E 80 9F 58 DD 7C 24
 84 AB 8D 41 47 55 78 3A EF 54 EB 3A 8D 2C EF A7
 A5 67 14 C7 20 41 7F 9F 68 09 E1 9E 3E 43 39 4C
 02 65 1E C7 6D 3C AE 02 0A B2 2A 52 DD 13 98 8C
 3D 92 45 60 3F EE 80 31 49 D2 B9 79 C8 74 C2 4D
 E9 99 8F 82 76 14 D0 9B 32 62 CE D8 FC F3 A6 81
 8B 2F FD 00 39 01 4A 42 BC 3A 22 43 15 57 A2 52
 23 9C 5F 40 9E F6 07 EB BF FB A0 3A 59 5D F6 B5
 71 09 C1 33 37 44 BE 52 2E A9 BC 2C 7D 3C 0C BA
 F0 51 36 3D F3 FF E9 FB 2D 75 9E 01 8F CE DE 76
 86 9A 8D 75 28 EE F4 64 67 44 79 1B A1 F4 C6 41
 9B 54 08 B0 57 D5 CD AE 90 BB BD BA 20 C5 7E 26
 0E D6 92 6F 42 5F 18 90 EA 75 89 0C 37 2D 31 2D
 A2 8E 73 84 68 2D C6 B5 D3 F6 8C 4F DF 3D AD AE
 EC 94 9E 87 63 43 55 88 FA C4 18 13 10 F5 A6 1E
 BB AC 04 E8 B6 66 2B 64 0B 8C F0 3D 8F F7 71 67
 9B D4 FA 18 B0 62 0D BB 6A FC E5 AD 28 79 61 40
 2F 89 35 56 C2 4F EA FF 4F 1C 6A 52 83 67 C2 EC
 9C 02 19 7F 0C BF C6 12 83 98 DC CE 8B A8 AC E3
 D7 82 3C FD 46 D0 A5 57 3D C8 E8 A2 C9 E4 AA 2C
 6D 44 A0 51 45 2B 51 82 0B D5 6C C5 61 CE C8 D6
 4A A3 F4 BC 73 F6 22 B6 D0 A8 FA 73 7D 7D 22 D9
 3C 49 61 32 41 36 7A 01 B8 02 60 81 BA 8A 7F A4
 75 F7 9A E0 6A EC E5 F0 99 71 15 02 E8 F6 14 E3
 BB 5F 1D 72 E1 1F 04 9A 8C 5A 01 3F 88 46 C5 93
 78 B2 31 7A 9B 22 5C 08 02 4B 86 EA D9 9F 4F B4
 43 A3 7A 2F B0 0C 22 BE 14 16 4F D4 06 ED E8 5D
 EA AF B2 6B 3E 16 3A 90 E3 EA 61 2F F5 62 CB DA
 F9 B3 FA B7 EE B3 17 CD EA 61 A1 31 39 8A D4 23
 FA CE 62 51 B6 70 B8 77 79 78 FD B1 AA 8C 91 A2
 A8 36 01 02 FB B4 E4 1A 3B F4 58 44 FB A9 22 B1
 48 02 C0 B7 A2 BB BC 55 B6 A0 DC E0 F6 9D 08 79
 C6 69 8C 3D 8A 02 84 CE 1B 35 E8 91 39 81 92 16
 10 E1 B5 F7 22 17 CB 45 9A A2 61 CC 53 B4 A9 F6
 E0 A0 83 12 B2 2D 17 E4 99 A9 34 F2 3A FA 69 C2
 26 2B 25 E1 3D A0 26 B8 66 4B 8E B8 8D 86 79 0A
 E1 52 BE 35 AD BB 61 C9 50 5A A3 E9 D2 09 44 49
 08 55 9E 19 1A E3 70 9C EC 09 9A F0 0F 8D 9E 61
 49 CB 9D DE 27 AC 5B 07 F4 BD AF AF 34 D6 7A D3
 6E 76 C5 15 BB DE 46 0A FA 8A F5 39 D8 E1 52 BC
 3C 6A BB AA D3 2F 87 FA 1D F6 D2 34 88 BC 00 BF
 13 F6 A9 13 D0 F0 E3 92 AF B2 0C 54 81 46 E8 E6
 CB 35 F5 F0 9C 12 53 89 6A 2F 89 41 8F 83 DD D2
 D4 DE 83 8A D2 0A 40 06 A6 42 0F F0 58 E1 4F 75
 4F 8D B7 CC E1 CF 9C F1 80 AD DA 6B BD 6D 33 8B
 48 B2 0A 5D D8 25 E9 48 AB 3D 92 12 EA 55 AF 0F
 59 F2 BC 69 96 F8 9A 65 74 A0 92 7F 50 FE 2C A7
 C2 DD AE BD 0B 96 27 02 7F 7E F2 AC 4B CB 60 76
 80 D2 84 97 93 6E D2 34 C1 90 3E 7A 62 71 27 7A
 BB 54 20 57 E5 4F 53 83 E5 C2 69 6A E6 DD 87 D7
 42 0D F1 97 47 D5 E5 A8 A9 BF C8 53 E6 B2 87 7E
 98 C4 A2 81 57 E8 EB BB B0 54 FC 64 81 3C A2 6E
 97 2A 7F E5 5B A4 F5 E6 00 99 7B BA F4 33 A6 B2
 9B B1 0E 32 82 1E 17 43 CB E8 A5 50 AF DA 30 F7
 EC 45 6B F0 B7 C4 B4 FF 4F D0 19 37 F0 D5 04 1D
 5A 12 E1 B6 A0 0B 90 A0 60 1C A6 51 8C 11 8B 8B
 82 8F 98 27 D4 7C B7 A0 39 8B 79 27 D5 D6 92 C7
 1F D1 38 03 3C E8 3E 55 DD BB 21 90 07 93 74 91
 56 77 23 4D 09 64 70 F9 D1 4B B4 A6 AB 3D C2 2F
 8C E6 B1 0A EB 4D 66 B6 D0 CF 7D 12 06 D5 C4 DA
 0B 93 16 7A E0 FB 01 F5 48 49 C7 82 81 AE 7E F8
 B3 BD 2E 86 7E 6E 9C 8F FB 77 26 A9 23 63 8F 82
 40 4A E2 51 11 B7 5C 94 C6 D1 B5 9E BE E0 50 2B
 87 F2 0A F0 56 7A E7 D3 14 8C 16 D7 7E 80 BE B3
 6E CB 68 F5 E2 A7 48 02 B6 65 AD 64 39 BF D5 94
 3C E1 35 0A 6F 70 04 37 25 31 09 C9 64 C9 97 FB
 ED B4 5C BD F2 C1 18 E8 FA D7 50 41 8B 99 66 03
 1D C9 92 EA E1 C1 90 BF 47 C8 CA 9E F7 A7 24 6D
 35 92 25 55 0F 09 0C 34 69 1E 19 50 B1 46 A1 8C
 FF F0 99 D6 46 89 2E E0 E7 A3 A7 02 5E 82 D2 10
 11 B5 40 42 E0 EA EE 6D 58 04 8A 81 4E D0 7F 4A
 89 1A E2 45 9E 28 2E 1F 72 36 8A 6D 0F 40 8F 40
 78 1C 77 8D 29 5D D2 B9 89 86 17 AB 08 93 42 79
 33 17 05 8D FD 68 34 5E 0D 79 DE 68 0A 27 2F 99
 2A D4 86 19 13 29 93 1B 6C 2E 1E 89 AB EF C1 83
 2A FE 5E 49 3D F6 01 8A B0 41 6A 5B FA 52 06 DF
 F1 4E 0A E0 33 EC 4B 61 83 41 11 5D FF 03 ED EF
 D6 2A 46 E4 FE 4C 1F 2F AC B8 F4 7D 2B FF FD 12
 6F 5A 5C E3 96 02 9B 5E 59 21 75 A4 1A EA A1 C1
 84 F3 8D CC 06 76 FE 84 10 4A 41 FB 15 69 EC D9
 A8 89 98 08 85 AC 29 AE 2D 6E 31 CA 18 D9 61 40
 C4 A2 E6 E2 9D 91 64 9A 75 D8 FB 53 5A 75 78 FE
 E0 CB C1 A2 4D 21 9A 19 B3 FC 4B 71 E6 BC B9 1F
 26 C5 DD D3 2E E0 B7 46 F6 1D 67 E8 05 B6 48 AB
 D5 C4 85 A5 D6 FD FB 1E B3 73 3D 07 49 89 A7 13
 DA 27 DB 0E FD B2 10 95 CB FC 2D BB 5A 90 3B CE
 2C E4 F9 06 09 9E F7 CA 63 9D 48 5D 70 29 4B C4
 6B 91 AE 3E B5 FC D1 FC D2 A6 54 59 ED 8B 1F 28
 F9 F7 26 29 B0 51 AA 56 87 C3 5A 8D 2D 35 51 B5
 72 9D 3C 34 9F A7 AD 91 BF 48 13 3C EF 7A 5D AA
 8F 2F 8E 78 55 8B EB C3 8E 0F A2 AB 40 95 E1 5C
 42 84 60 1E 39 D4 14 0C EC A6 EA 48 2F 7E 15 35
 10 C8 B0 2B 8B 10 7F F4 03 D9 CF 80 B9 75 2A EB
 0C F6 E5 8D 32 EB C4 F0 12 B6 B8 3E FC D3 A2 BF
 3C FB 94 F2 1D FB 1D 11 04 51 2F E3 29 04 29 B7
 22 51 B1 3A 44 D4 89 81 5B F4 8C D3 FB A5 7D 1D
 1C 8E 95 2B 07 98 7B C8 91 F7 88 FD 7F AC 8E 2F
 C2 7A 7D 8A 69 AF 2C 2A 90 31 44 E0 CC 43 1D F6
 5C D4 D9 6C 8E 39 40 68 F8 4F B1 7B 45 42 74 C6
 8D CD CD 03 E2 7F 85 4F D2 76 A0 44 AD C5 D1 41
 33 47 32 C8 F5 61 80 3D 7A 47 57 84 5A CB BC A0
 D3 EF 9F 2F 61 3B D8 87 C1 0C 86 97 DF DF E4 6C
 79 EC 1A 24 75 5E 91 A7 9F 4C 89 7F 7A EF 7B D4
 7C C9 B2 DC 7A EA AB AE 57 8C E5 BF DC 76 5E 42
 40 D5 37 26 1D 9D B0 60
* End 522271855 2150849717