* LTspice Encrypted File
* 
* This encrypted file has been supplied by a 3rd
* party vendor that does not wish to publicize
* the technology used to implement this library.
* 
* Permission is granted to use this file for
* simulations but not to reverse engineer its
* contents.
* 
* Begin:
 14 1C 9F DA 1E 92 AF 8E 35 64 F4 95 A6 4C C0 93
 E7 41 7C 2F E9 20 57 37 CD 9C B0 C5 72 1A 6C 6C
 14 6F FC 05 06 78 81 E0 37 D5 87 9F 99 BC A9 93
 B0 FA AD 1B 23 4D 83 C2 75 B0 48 02 AD 5F D1 E5
 1C 1E 36 0F 70 71 E8 A2 BE A6 34 75 FE 9B 1C E6
 12 E5 CD 25 7E 1B 39 7B 41 E7 63 5F BC 36 00 12
 B9 1B BF 39 20 2A 47 EC 20 D5 E2 4F 42 44 EC 93
 0C 6E 86 C7 BB 13 ED AD 92 C0 76 C5 5E 8F BF BE
 5E 0C 3D 7A 5B A9 A3 DB 53 98 04 AD B6 62 C6 23
 01 A8 28 EF 14 97 07 E1 D1 8B 35 88 DC 15 69 C7
 64 1C DB C0 57 F2 99 7C 9C D4 6B 68 3C 42 65 D2
 9C CC 6A 42 96 11 AD 92 DC E0 8D A4 E5 D0 1A 54
 45 62 2F 64 BC A7 0D 87 B8 7D 6D 16 28 5D BE D1
 0E 77 E5 3F 8B 95 10 E8 81 DC C7 A5 2B CB F7 E2
 C2 82 E4 A9 9F B9 32 AE B7 C8 5B C7 2C 5D 8C D1
 B8 93 B2 8E AA C5 5D 89 A6 4B FA F5 C0 97 D7 33
 37 A4 00 FB 57 AD BF 86 85 EF AD 42 22 42 02 50
 03 C2 13 87 D0 42 C8 2C CF 23 71 76 E5 6D C3 70
 BB F8 82 2E 10 21 E8 15 EC 2D D6 8B D1 BF 6F F7
 40 B0 56 A4 40 52 82 22 8F 77 EA 04 C6 0C F7 CB
 92 10 E0 27 3D F4 64 90 46 30 66 10 66 63 E4 19
 23 C9 48 E7 DC 48 F5 A5 3C 6F 1C 42 EB C1 04 AE
 D1 90 1F C0 CC D6 B1 7F 9E F1 4F B6 C3 B7 77 61
 C1 78 0C 4B 90 CF 49 8D 1C 48 28 E4 C2 1D AD B7
 76 08 BD 53 AF 18 B6 9D F5 6A A5 0C EA E8 32 F4
 2E 1A DB 11 5E F4 E2 A9 BF 67 88 FC 57 67 7D 5C
 7B 7B 7D 3F 38 81 7D FF DF 92 CB 5B 2F D6 06 F4
 A0 44 89 66 43 EF DB 9D 52 8C 66 55 1B 01 8F E6
 A2 3A 5A 3C 97 49 FD FD 49 78 3D 43 17 2A 50 33
 87 BE 91 54 67 6F 1D 07 DD 68 9E BD 64 B9 5B 9C
 FB E9 C9 B6 ED AA F2 E3 AF 75 3D 35 BB 93 45 0F
 95 7C 9B F8 C0 2D C8 CA D5 DB 1A 4B 02 1F 74 21
 70 F3 70 E1 43 41 25 41 D0 1D 94 F5 F2 EF 14 D7
 2C AF 0A 0C CF 87 5C D0 0E EB 9A 63 56 36 D9 F0
 03 CD 6B 57 3B F4 B6 78 3C 57 4A 72 26 5A F7 6E
 FF 94 A7 47 61 A8 F6 2D 98 58 A2 88 49 8C F1 E2
 62 65 70 08 F4 A5 81 69 4F 93 9F 80 81 4E DC F5
 22 C0 C8 19 55 47 78 E0 56 F0 E3 79 C1 C6 66 05
 A2 E9 4C C1 08 90 49 B0 AD 6B F5 86 80 20 DA A1
 F9 B8 1E 7A 35 70 75 9B 6F AF C5 F5 69 DC B1 73
 68 04 23 63 30 B0 60 EC 60 2E E4 D7 5E F8 15 7A
 94 14 BB 92 1E CB F4 E2 67 CE 68 DA 91 56 F1 F1
 8D C6 39 6D 88 FE 76 42 9F DB 3F 77 31 86 9D 85
 E8 51 34 96 E0 BF 94 43 9F 59 1B 5A 53 E3 6D F7
 72 2D 40 5F 77 C5 A8 98 A9 E0 82 02 95 8A 11 A0
 DA C6 00 F1 4D 49 40 57 01 F5 D9 1E B8 8D A8 D7
 8D AF 99 34 C0 16 5F B1 1C 76 AA 0F D9 3C D2 9A
 9C 49 AB 9A D2 32 1B 3B A9 F7 5F 71 99 98 38 9F
 FB D4 DA DD 9D E7 F4 16 82 02 9A E6 CF 94 93 4D
 96 68 88 C8 59 A3 56 CB 0E E5 79 10 FF A9 E7 08
 0A 16 CA 2C 6B BD E5 26 8F 48 0F F3 DA 74 69 AF
 8A 6F 9A CD E3 DA FA BE F5 C2 89 06 94 F2 D0 E6
 8A 14 96 70 17 CC F5 70 3B 64 4A B4 10 4C B1 56
 7B AA BD 17 9B F9 A4 53 31 4C 2B DE 04 8B C5 5B
 92 BA CC 56 73 69 E3 FB 58 74 3F 11 CE 35 0E 47
 6C 4E D3 49 65 1B 38 4E E2 B9 B1 97 F7 3C 86 9F
 49 7C B0 C3 19 45 A3 EF A1 A0 05 9C DF 2B 1A 22
 FD D5 2E 52 52 58 7A 32 6A 1C 56 C7 87 76 FD 16
 1A 4A 5B 05 5B D2 7A F8 25 46 74 7F 94 83 6C 2A
 FA A7 77 2E 83 D3 19 70 49 E3 F2 E7 DE 51 26 33
 AD 43 42 6E 2D B4 12 93 C5 C0 C6 F5 45 3B A4 C9
 A3 3D 4F 4B 36 7F E5 1E 5D BA 25 AF 5D 44 BA 87
 B0 FF 93 D1 D9 2D B0 0E 82 04 74 6B 67 9A AD 69
 64 6B DD 18 81 9B 13 41 38 C7 1F 48 C3 90 AE 1C
 FF 97 8B 3B F1 33 C1 48 3F 2D 16 35 4F 26 63 99
 97 DF 08 55 F4 86 B5 53 39 EB BB 55 84 54 E5 62
 03 AA 83 C7 06 03 BF 91 C0 74 76 39 D6 CB 1D FE
 29 B2 D4 F6 53 5E D3 90 E5 37 78 DA 2D F0 B5 D5
 52 6F 1E D8 0E 7E 0D 24 5A 67 4A E4 FC 79 27 AE
 E9 6E DE B4 E5 0E 8A 1D 30 32 56 44 63 25 BB CD
 C0 89 86 99 23 43 DB 93 8C 10 9E 4C C9 58 24 2C
 91 4B DF 43 D1 B4 4D 68 E3 BF 14 7D D5 99 88 AD
 8A 59 B7 24 29 FA 60 45 78 F9 79 F3 6B 9B 98 26
 CB 37 24 6C DD 1D E0 37 64 F2 0F 4B B9 C2 45 E1
 C9 08 FB 56 52 32 0F 3F 33 EE 99 4D 18 32 76 7E
 89 8C 55 B1 02 09 F2 27 F8 4C 8A FC A5 5F BB 19
 6B 44 7A 14 2A 40 28 90 93 80 F3 4B 8B 24 55 0A
 AB 88 50 BD CD DF A2 68 B7 5E 74 7F DC F9 35 60
 F8 1B DB 02 FC 38 DD BA 92 2B 94 8F D0 AC C9 29
 35 CD 26 A6 A1 21 2F 04 DD 4F 28 D7 B3 5C 2A 0A
 2D BB 7F 42 F0 41 CF B8 B3 29 E4 C6 B2 83 C4 9B
 AB DC 88 00 EB 03 85 F0 8F A7 8B 8C 1F 2C CF E1
 FF 7B 0E 45 93 58 F3 4D C9 1A AD 66 64 F5 DD 25
 A0 99 48 49 96 6D 9D 16 4A B0 7E 17 B0 28 21 5B
 6B 7B 47 7F CD 94 B6 9B 3F 47 BD 56 35 B6 8E A8
 56 70 F1 6B 4F 5F 32 87 F4 57 08 11 A3 DD 8B 62
 8F A5 44 28 F9 36 6F 1C D4 3C BC 24 F1 57 51 F4
 A4 4A EB 42 14 9B 40 3E AD 1D 37 8A AC 92 CB 91
 C1 5C 58 BC 43 45 DD 68 9C 0F A6 CB 40 E0 D6 6C
 5F EB 9E 07 1B DC 39 EE D3 71 F5 EF AA B1 18 A6
 AA 8D 95 DC 6D D1 50 CB FF 1F 7A 5B 5F 7A F4 62
 D5 5B 0A 50 BF BA 10 27 7D 11 C8 74 2C 8D 5E 9B
 05 31 B1 CD 65 65 0D B3 C4 18 70 44 14 10 DE 71
 7C 2E F0 E3 FA 10 7D 47 A4 92 5E 5D 6A 9D E6 DA
 B9 37 AE FB 64 1D 0D 98 AD C4 44 76 5E 16 AB 08
 18 B9 D3 BB 6E 77 F6 2D 2B D1 B3 15 24 54 68 10
 88 42 83 98 06 21 12 55 30 99 74 E3 3A B5 D5 68
 39 77 85 09 27 A5 B6 19 32 EF BC 7D 0A A9 2E AF
 F0 DA 66 0D 00 92 8B FE 69 73 DA FF 5A 3C 77 16
 2C 18 89 AA 72 B1 CD 7E E1 68 7D 2D 6F 52 93 33
 7C 72 AC 5E 4A D6 2C 42 B5 0B 4E 68 07 2E A5 3C
 FD 02 0B 38 DC A3 9C 5B 00 03 54 AB 11 FF 42 6A
 8F 2B A7 9D B7 46 63 0A 10 9D 6B 98 A9 12 69 A4
 43 D5 79 DF E3 78 E3 9B 50 71 37 9D 20 47 6E 18
 E6 36 E3 2D 08 73 59 F1 49 4A 64 10 DD FF AF 6D
 88 15 0D 3D 95 22 9C BF 42 C1 F4 51 7A A4 49 FC
 8F 3E 34 62 EE 8C 65 1A 8F 73 8E 75 4C 7A 72 23
 0D 07 F1 C4 BD 76 D9 F5 0F BD 37 6F 07 1B 89 24
 E0 B2 50 DE 32 2F FA 56 7D C3 61 8D 10 49 63 57
 A1 12 E8 37 31 4D 7B 15 2F 09 07 FC DC 8B 5B 8C
 FA 1D 05 5C B6 C7 06 C3 02 D0 7B B1 B5 A8 15 7E
 6F 85 85 87 57 A0 57 74 7C 89 92 5E 82 D6 10 2C
 97 70 C5 4D BA 13 BF 63 FF FC DE 1C 1A 67 EE F8
 E9 1C E2 03 A4 5D 2D E0 66 64 A1 66 70 E9 86 90
 22 36 F3 B2 E3 81 39 B3 DD 65 6E B1 65 B8 4F AF
 25 B8 13 53 31 57 72 C7 1C 9D 02 5D 07 EC 26 4F
 0A 70 40 52 F0 F6 C1 3D EF E5 B0 E4 0D DF 1E 07
 8B 19 F6 A4 80 91 B4 C0 80 AD 0E 97 F6 C5 A3 1E
 D1 9F 9F A5 3A 7F 7B 22 B1 4F 8B 5B 23 D4 AB E6
 6C 83 53 39 84 E1 E4 C0 D3 C8 7B 61 45 59 8B B6
 07 A7 D4 72 4B A8 23 00 D6 46 33 3C 88 F1 93 30
 D4 28 2B 17 7A 49 D4 1C 3D D9 6F 91 4D 6C 0C E1
 FA 1D DF DD DD 01 8D 73 60 84 FD 56 06 0B AC 04
 3E 06 CB 6E 5E 26 C5 C5 34 E2 5F 41 8D B2 42 97
 1A EF 9A CC B6 8A 66 02 83 2B 7F 19 96 AE A8 6C
 1E D0 13 F3 A8 B9 23 42 F1 ED CB 74 D9 B2 EA 3A
 0F 02 30 59 3B D5 A2 EB A5 D8 A6 85 51 26 D1 24
 54 75 60 50 47 91 E4 87 97 BA 0A 8C E2 65 D4 FF
 94 9B 6B CF 9B 26 02 51 45 DB EC 18 D6 68 8E 2B
 C8 96 DF 1E F6 D4 C2 F8 FB 6A 0A 5F AE C8 E3 BC
 34 97 8C 77 DB DD A3 4A 0A FE 78 E9 A9 61 4F 66
 73 DD 95 55 3C 6D DA 2A 03 CF 90 9F 79 30 D8 A8
 0D 97 F9 7D B0 D7 E1 1B B9 9E FF DE 4B 02 D3 E5
 31 91 77 49 68 97 7F C7 F3 78 B8 7D EB E4 57 8A
 0A CF A2 2A DF 07 06 5B 0E C4 E5 C6 50 88 2D 47
 81 40 A3 70 F9 F3 00 E1 A7 DF FD C9 A2 84 2F 9A
 11 B2 41 65 60 08 94 AD 03 59 5C BB 27 F4 45 C6
 B2 77 EC 33 2C 06 28 B1 D3 B4 AF C0 29 88 9C 52
 73 00 33 90 4E 07 36 F2 AE E1 F1 91 9D AD 65 10
 DC E5 01 DA 17 67 3A D9 10 E2 87 C9 DD 3C 70 BF
 0B 5C CB 7C CC 48 98 73 BE 32 1C DA F3 99 36 F9
 92 E5 03 71 98 9F 12 1E 05 D1 5D 85 4E 75 C7 46
 6B 47 A6 71 4C AC B9 5E D2 9B 2E 4F 23 0F 30 19
 A7 71 79 85 C5 1D 83 CF 27 46 39 34 E2 3C 09 4D
 4E 05 B6 36 FC 1D FA 3B 60 FA 1D 78 BB B5 4C 43
 CA 87 9B DE 98 06 CA 01 96 66 F5 19 BB 18 9C 81
 AB 23 1F FE 28 21 C6 FB 76 66 97 0E F8 DD 57 80
 67 B2 65 D2 5F 22 A4 3B F8 B1 9F 56 96 4A 6A E5
 D1 F6 00 88 2A 74 6B F5 25 06 25 07 9A 5D 08 00
 BD 6F BA E1 7D 82 45 32 4E 04 D4 A2 28 EC 60 81
 77 95 14 39 34 A7 FB DD A5 EE 0D D1 64 45 78 0A
 B9 D3 1F 20 0A 30 58 4F A3 B6 57 82 64 08 D9 08
 97 26 59 55 E0 7D F7 8A 5B 74 40 05 7C 18 D0 B3
 D2 90 68 B1 C9 3C B3 D9 6A 2E 30 3B 08 F1 B9 D2
 C0 60 8A 57 12 41 38 C2 B6 E7 BF 7A F2 08 1F 39
 6B DC E1 4D 0A 39 F8 41 73 17 CF D1 33 0A C0 95
 F6 DE 11 2F DD 51 F3 3A 1C 4A 93 0A 62 98 3A 0B
 BD AE 95 A0 44 EA 7E E5 D0 97 66 C5 93 D6 41 D6
 B5 6A F2 85 FD A7 05 69 3F B3 5A C9 19 86 BE A2
 7B 61 9C D5 91 C5 40 05 B0 07 EC 17 72 FC 76 35
 7C FD 04 5F CD 98 8E 72 62 AE F6 17 5C D1 06 AB
 E4 4B B3 6E 24 02 D0 F8 EA 1A 5E 52 7A AC 91 4B
 CF 9B C5 4F 8C C0 5D F4 03 06 AD 6F C5 62 1B 7C
 75 E7 9E DE CD 7D C8 D6 40 46 CC 1E AF C8 6D 34
 0F FB 50 9F F4 CB A5 AF A0 29 8B 91 9D 71 7C F8
 18 AF 4B 0A C0 7D F3 0E DF C0 46 17 8A 32 F7 C1
 BD 80 8F 3E CA 43 99 D1 B7 51 B3 62 80 CB 1E C1
 DB 89 24 A0 B9 B9 42 B0 AC EA 4C E5 BA 05 EF 69
 1A 7E 5E 72 99 81 B0 49 A1 B6 10 F5 B8 82 5F 9A
 E2 1B 24 F7 31 8A 2F 90 0B 30 C4 C7 A9 F2 19 92
 2F D1 89 F9 3C 32 AF 74 15 06 2B AB 6B 17 0E F4
 3A 81 C5 11 FF 0F 1E DA 8E 80 75 10 C8 3F F5 70
 8C E4 99 5D 41 1C A3 D9 7B 73 CD 88 CB 44 DC 09
 BF C3 3A 20 6F 33 E3 3C 43 11 6B 2B 14 B2 DF F1
 0E 5D CE E2 02 FE 17 26 3A 24 AF 3B FC A7 24 75
 34 BE 53 C3 61 53 D5 78 04 29 16 87 77 62 01 48
 E2 7C FE F1 0A 3C BD B5 A9 66 59 9E 0F EA 8A 48
 D4 2A CC F1 49 A2 56 1E 9C 54 F4 E7 89 E1 75 03
 06 5F F9 A5 21 E3 64 26 E2 1A C4 F5 E1 5C E4 D7
 B9 91 E9 C1 B5 AC CA AC 85 5D DB 98 29 7A CB FE
 35 91 D1 43 35 08 2A 02 6B 6E 33 90 21 D2 96 54
 58 B7 35 26 42 AB 0C BE A8 6B 40 B4 5E 79 D9 F0
 99 39 2D 40 FE 22 43 31 7A 7A 6A 60 4D B4 5B D5
 93 B7 5D 2C 3A 3D C4 FD 74 FF 56 C1 FB 7D C1 C2
 71 C2 D0 E2 5C 41 A5 BF 28 BF B7 CA 35 91 DC A3
 9D 58 4C 5C 2F AA 69 E3 60 78 CC 3C 7C E4 A7 E6
 20 EB 19 52 7F 44 86 9D 64 5F DE A4 B3 9E D2 41
 F3 F3 58 4E D8 27 1C 71 52 90 F2 34 1D D1 DE 68
 81 F5 BA E2 96 58 71 77 9A 46 FD 28 C9 B7 A0 30
 FB C6 E4 29 E9 15 B1 BA 0F 1C 1E 5A A5 1D 7D D4
 29 11 2C 8A 99 5C 8A 43 AB 13 44 D7 B1 43 DB 67
 3D 80 59 3A 7A D7 90 C1 CA 1E 83 D8 19 52 56 C4
 D5 12 17 96 7D FE 1C D5 BC 27 95 7F B8 3B A0 3C
 F6 AB 9D 1E D1 C2 18 63 0B FA 3E 13 24 BF 8A 54
 EE 20 B3 65 C5 D6 59 58 6F 9C 62 D8 AE E2 34 EA
 9C 0C 93 37 6A 79 82 D4 81 48 88 BA 9B A6 E5 20
 B0 F4 73 A5 C0 DD CB C7 59 73 33 25 8A 7A F7 65
 9E 63 9C 70 AB F2 1D 74 9F 35 7F 74 60 3D C1 F5
 30 21 49 E9 59 47 73 D9 5B 79 1A A4 0B FF 63 2B
 25 75 4F 4C 60 8A A2 E2 00 D2 F4 F2 D0 3A 8B 20
 AD 71 47 DE 5A 5D D5 11 48 F6 6F 2A 00 46 75 8F
 24 F8 E0 8D BA 68 5E 4C B9 C1 D1 BC 9C 5F 4E 09
 C3 0A 54 38 DA DB 42 7C 24 70 AD 4E 05 10 C1 20
 9C 47 A9 2B 3E E7 22 79 FD 39 BA 83 BC 95 D3 E3
 9B DF D3 F7 A9 8C B3 D2 5C 2B D4 6D 0F 73 5F 2C
 BA 92 7B 77 26 32 F1 49 94 63 66 F5 EF 60 E5 4B
 F0 62 62 02 2A 65 7C 46 C0 5C 2A 6B 23 8F 1F F6
 62 93 15 85 7D A0 E1 E5 38 CB 18 02 CB EE 0B 1B
 9A 2C 95 2E CE 48 49 E2 4C F8 A0 DE 7F A5 97 2B
 09 25 00 81 4C FB FB D9 F3 FC 61 09 67 0E B0 1B
 C4 57 26 41 FA 30 BF C7 F2 82 DC 7D D2 8F 41 27
 BF A7 D9 47 67 9A 44 B7 0A 74 2A 85 36 04 79 B0
 D3 DE 9B A3 B5 24 4E 7B 7A 02 C3 6E 23 79 A1 7C
 29 BB 3C 92 24 C2 51 5E E7 6C A4 D9 D8 C2 F8 71
 64 BD 8C 66 89 72 80 BE 77 40 48 73 CC 74 8D 54
 1A 5B 32 7A 02 D3 76 73 10 19 67 83 C8 8B DF FE
 C5 20 C2 D3 91 4A 8C DB 01 36 B8 66 13 01 4A 0A
 15 66 B3 F2 0C 67 76 5A FE 48 34 79 B2 F5 7F 54
 47 D1 49 5D 0F 2E DE BF DE 10 AF 6E 36 7F 81 C1
 7A 4F E6 97 3F 0B 48 D7 46 A9 D4 1E 47 3A 60 9A
 FC 08 C2 52 19 BC 1D 10 35 61 D1 8B 2A 94 76 8A
 ED 3E 85 A2 74 27 8F 5B E6 33 32 74 58 20 4F BC
 2E 07 80 E6 23 49 B4 3A B5 C9 15 08 BB 4C E0 71
 C4 26 2F 3E D6 75 89 23 87 C2 76 88 98 44 08 6B
 07 09 06 5E 83 91 DB 9A 02 D2 F1 56 7A 3A 8B 0F
 DA B5 CC 44 8D 7E 82 43 7D 50 BA FA D9 B9 F7 2B
 82 66 94 04 40 FE AE 89 D7 C3 25 A9 17 2F D8 AA
 BE 31 16 3E 7C 23 6B 30 66 E2 FF 3E 5C 9E E4 A4
 8B 3D 79 06 D1 D9 F8 AD 67 01 86 A6 AA C6 4F EC
 14 15 9A D4 F7 F6 57 41 93 05 A9 89 B4 27 54 88
 DB 26 79 53 7D FC DF C7 28 5B 33 D5 87 02 ED 05
 A7 E6 B8 00 EF FA 99 EA BD 2D 03 EA 53 31 6C 23
 FF B8 F3 84 DB 0A 72 AB 4A 6E BD B9 39 4C D2 5B
 93 8A FF D2 9C FF 71 FB DA 58 02 9B 17 A7 82 E3
 29 A3 6A 76 BC 99 4A 51 77 1B 51 34 04 8F 33 85
 E6 AD BC 97 2F 63 F3 CA 80 8B 95 8A D3 69 09 8F
 8B AE 4A 84 F9 40 A4 3E B5 6F 9C D8 7A 32 49 50
 65 A6 AA 49 23 98 14 08 94 6E 24 35 7E 05 7F 87
 D4 26 26 EB 85 ED 39 F4 28 2D 77 13 22 66 9F 30
 DB F2 3A 15 47 00 92 2E D5 11 A7 88 95 19 B3 33
 23 1D 0C A9 06 16 75 33 B1 52 C6 37 65 13 52 FB
 1F 90 02 8A A5 6A 94 4B 89 E6 90 E2 4A B5 7D E4
 BD D3 68 0A A8 32 24 26 48 82 A9 71 C0 5F 50 BE
 6E 8F E6 63 75 2B 05 BC 96 16 AA 96 E1 10 21 12
 43 89 00 79 A1 A5 BD 62 33 C9 7D 88 5D B3 46 DF
 20 A6 80 EA 9B 80 E7 A7 56 FF AB E6 F3 5C 0C 39
 B6 7C 82 02 ED 13 BA A2 BA FE 8D 5F 68 82 40 0B
 5C FA B5 88 33 AB CC 20 CD 2A B3 73 7B 79 67 0B
 E9 DA DC 54 22 2C 37 92 9B 59 22 9E F2 DB 7C 10
 4B A3 D6 58 05 D0 90 D0 3D EE 2F C7 AC 6F D5 8B
 F7 3E D5 0B 1F A6 29 45 8A D1 9F B6 D6 DC CA E1
 21 7B 1D 7C E1 75 36 B1 A0 86 24 F2 25 4E B9 67
 C7 73 13 CD 00 E8 86 9D 59 5C B9 53 8F E1 56 04
 14 65 4C 7A 5D BD CD B0 58 6E B7 0C B4 6E 98 80
 3B A9 C4 A1 0E A9 06 64 86 D4 B0 22 D5 62 6E 29
 83 20 D8 6C 80 78 45 60 54 1C 07 B1 3C 2A 4B 81
 1F 8D 4C 38 46 A4 4F 02 16 99 61 18 E9 CA 7E 87
 23 90 B6 3B 56 D8 95 0F 89 0A 9C A9 BB 6D 74 EC
 3A 59 28 C1 1D 8B EF FC DB 1C 03 13 90 79 D2 8C
 34 7F 0E 90 66 6A 00 56 36 F1 CC CE 9E BD 93 D0
 FF 7E 5F 60 AC 9C 59 A0 82 40 7F 6B B2 9A 2B 5A
 E8 85 A5 9C 93 DF 4C AE 01 5F 57 F8 14 9C 25 06
 05 F2 C6 62 B2 9B B8 74 72 AA 5F 3C E8 A4 93 E9
 54 3D 2B CB 57 79 48 F8 38 8C FD 80 5C 05 89 C7
 64 AE E9 A5 A7 4E 7C DA D2 55 CE 6B 22 89 E2 38
 66 E3 C8 F3 C6 7F A7 79 8F 59 99 D6 D5 09 1F 04
 18 14 5A 26 F8 26 7F D0 EE DB 32 7D 83 22 C3 0D
 F1 18 7E 18 73 0F 29 FF F2 3C AB 43 E7 63 DC B1
 14 52 E0 DF 73 4F C3 2E E8 B6 8A A9 DB AE 57 F1
 7D 24 EF E9 6A A3 13 A2 B3 26 A3 04 3F 94 F6 D0
 80 33 3A 32 89 EB B8 13 B0 D2 2B 6A 2E D2 44 85
 27 8B 21 59 A5 61 05 C9 B0 D7 3A BC 8E AC 4E E0
 2A DE 96 10 C3 11 6E A0 3E F1 14 8E BC 0D 16 BF
 8B 9B D7 4D A5 CA 98 44 EE 0D F5 55 E2 27 94 0B
 45 F8 E7 F3 55 B2 B9 71 52 B8 28 B8 10 FE 79 CB
 6C 49 D8 F8 F3 48 D0 5B 43 9C 53 2F 67 57 B5 0A
 B5 5C 9A 1A D8 31 20 37 65 F0 4B 32 F6 F8 2B 34
 00 A5 33 92 DF C8 49 30 CB D2 E8 01 1D 08 83 84
 18 13 56 C6 10 86 71 01 30 A8 AE 63 FA FB 8C D2
 88 8F FC 93 D9 A1 83 E9 B3 75 06 1F CB D8 FF 95
 12 7F 9E 5D 10 60 CA E4 D4 35 FA CA 01 40 A9 21
 69 07 BE 36 B2 DC EE B1 83 10 FF C5 43 E6 19 5B
 D8 26 39 67 87 71 90 E3 48 9F 0F 24 A8 37 A9 A9
 76 18 29 CC E8 49 27 1F 1D 3E 04 0F CD 42 96 58
 19 0E AC FE C7 11 39 77 F5 19 18 67 73 FC 0B 24
 31 58 1F DD 82 5B 00 98 D0 43 81 69 1C D8 08 E3
 8D 91 E0 84 4A 48 46 43 4D C4 0B 7E 56 84 12 5E
 83 8A 26 9D 7D CC 3E 8E 29 8B 66 D9 CC EA 0E 97
 85 58 B2 DE FD CF 17 68 21 D4 A1 93 83 29 AE B7
 A3 9B CE AA 91 DB 4D FB 55 46 D6 5E F6 7B 1E EB
 AD C2 37 04 C7 E5 62 7F DF 0D 10 49 7A 23 59 3A
 3B 26 1B 0D 45 86 09 B1 C7 67 DE CD 11 B6 2C 12
 23 E3 02 79 03 25 E2 E1 35 DE 36 0C 94 C4 46 22
 92 69 39 2C C3 79 0D 21 C7 98 19 3F A2 73 8A 4F
 B9 75 37 75 82 B4 98 7A 7F F6 E8 44 78 91 24 8B
 32 5F 0A D9 7B 4E 14 DD BD DC 86 26 7C 82 A3 43
 61 85 43 B2 7E 5E 89 14 D2 8C 0B 25 E3 F2 3B 98
 3F 8D 6E 9C 48 3D 73 F5 5D 17 E9 D8 21 6B 97 04
 5A AB FC 21 7F 37 EA D1 76 6A 07 6B 69 5F 24 52
 5E B7 14 2F 84 8E 38 18 81 F8 A4 4B 2D BC D5 6E
 A5 1F B3 47 85 7B 12 D2 BB FF 52 C6 57 C8 83 EB
 00 99 03 89 76 EC BB 25 35 60 F5 B8 7C 49 EA 05
 4E EC CF C8 33 9B 0B B7 AF 74 E8 AC DF 17 F5 6E
 2E 1C 5D A2 A7 2F 97 0F 71 37 FB BE 4C 2E 00 F6
 06 03 AA 54 B0 38 E4 02 D8 1B F8 D8 A2 2B 6F F9
 67 B8 53 53 50 5E 04 37 E7 0A 7F 49 6B 1E 5A E3
 B4 6A 39 08 FE D7 A8 C5 8F 95 98 5D 2F 36 40 8F
 69 DC FB BB 0F 79 14 3F 98 CF B8 C8 B7 68 A8 26
 73 7A 09 88 5A 95 76 C6 E3 B7 12 DD 3A 3B E7 A5
 3F D6 EE 87 A3 83 D5 B4 FD 11 D9 83 E1 1B 98 E0
 35 3C 55 1F 3E BD B7 47 7A 96 80 C9 C9 AB EC 3E
 22 C7 C6 DB 29 54 A2 71 C4 B6 28 29 A9 10 0D 9E
 12 C4 20 F6 2D FC 47 30 D2 61 95 6A 1D 84 12 22
 8C 79 3F 89 69 21 3A 59 0B 61 55 C1 65 97 5A 54
 F6 A6 4F 56 C5 31 BF 62 17 52 77 C5 7C 9C 35 DF
 BC 84 7B F6 4F E2 CF 6A 7C 46 01 DF 85 2C 32 0B
 11 DE 44 FD 07 D6 9E 62 57 47 66 1D 46 14 01 55
 61 03 AE 78 2F 6C 49 2D 9B FA EB 52 08 60 30 D6
 79 9A DF 48 9C 51 3A 83 F9 59 23 E1 D1 53 0C 89
 B2 E2 1A 4A F6 E0 7B 58 15 B5 A7 7C 48 0C 9A E5
 60 B7 2A 56 9A 8D 02 24 6A 8C 70 16 24 D3 F3 B4
 63 56 AA 07 D0 8B 45 79 55 71 49 A8 2B AE 0C 0E
 A8 53 3F 58 55 37 01 C1 5E AE 94 B8 8D F8 7E 29
 0E 31 7F BB FC 2C 38 5C E0 DF 71 78 52 51 76 7C
 D6 E1 18 31 7A 9C BF AA F7 9E E4 D1 9E 9D 78 AA
 C0 CF 5E B5 36 ED 15 AF F4 84 7C D3 36 96 1B 49
 37 A8 34 1E 20 21 C6 94 FD 67 7F D0 C2 2B 60 BD
 8E 37 30 6D 37 54 33 2D 10 64 9D B7 5F 85 8C B6
 D4 13 C4 3B EB 36 ED 84 CB 78 BF 8C 43 42 84 17
 E1 62 EF 5E E5 BB A2 F1 4F F7 F8 8C CC 3F CF C4
 0D AA 39 B9 3E 4D 8D 9F E2 74 DB 6D AD 87 E1 0C
 79 7D 90 1C 20 4B 63 30 75 E5 B9 3B D6 25 6F 30
 7E 50 A8 C8 EE D4 DF D3 BC B7 C2 18 E3 BA DD 07
 59 24 9D 68 86 58 29 E9 F5 49 80 36 D5 11 9F B6
 D7 B0 DE 05 69 C2 90 39 22 DB 95 AE 87 79 FD 32
 60 7E D7 96 4B B0 90 E8 14 F7 A0 FF B2 FA 22 8B
 8A 77 F7 AC 41 E5 B3 CD 5A 50 8D F7 D3 DE 43 69
 76 8D 65 79 FA 91 58 3C DC E6 DA 47 BE BC 2A 1E
 53 56 6B 85 E8 79 B8 AC 63 A5 AF 9F AF 85 8B 88
 B6 5C 0A 84 A4 42 61 8C 72 23 76 EF B8 5B 0A 2B
 8A C1 2D E3 CA C0 B3 07 80 FC 77 DC 3E AD B3 36
 21 3D 6E 54 0D D1 EE 5F F0 A8 B8 28 F8 24 22 9B
 2B 51 A0 4E 77 2A F6 3C 44 91 91 E9 8D E6 F6 91
 29 90 63 78 A4 11 39 0B 05 CF 26 B9 7A C6 BE D1
 AD FE 0A 78 84 AC 5A AD 55 05 08 A8 3E A4 34 58
 EB 1B 10 E7 C9 F7 EB 27 29 A8 B8 F3 EB 9F 4B E9
 1B 01 BF D0 FF FE 15 20 94 A5 F5 D4 1C F4 63 37
 3B 6C 68 5F AE 3E 46 56 29 16 1E C2 37 B4 88 DC
 63 2B 5D 57 8E AF 9E 8D B4 BF C9 A2 6F BC 0F 42
 2E FC 5C EA E9 73 25 AD 5D 0B 3B 75 C9 1E 12 75
 30 A6 9C 83 85 F2 46 5D AA 71 B3 B7 64 3D 56 DC
 11 8E CA 85 16 29 8D 81 E4 DD F0 82 BF 24 63 92
 20 71 6E F6 46 AF E4 23 18 0D CA CF F9 ED 67 8E
 31 B0 BC F9 8D AF B0 29 FA 81 1D 34 20 B0 BA 77
 16 8B 55 F0 33 4B F4 62 AD 9C C0 11 5D B6 A9 D3
 9C 65 21 56 83 25 73 DD CA CD 93 89 AD A1 67 22
 DA D0 CA 7F FD 6F 5E 49 BD A9 C0 39 41 9E B2 0B
 A8 5E C1 AD 9A 24 F5 B5 74 37 12 73 EE C1 54 31
 A9 3E A2 0A FB CF 0A 0B D7 8D CA 40 BD 17 CB C9
 01 79 91 5C 6C 50 DC B5 1E 55 C2 F5 98 19 04 A7
 FA C3 39 54 E5 B6 9B 1B B9 E5 AA 46 98 D1 93 15
 1A 8C 80 1B 78 00 9C A5 DD 6A EC 5D 59 0B AF 7F
 03 1E DC C6 CD D9 BD 13 BD A1 E3 C2 0F 6C EB E8
 44 5D 22 B8 27 AD 4A 03 B3 1A B9 14 62 7F 97 0C
 44 89 EE C1 56 53 1D 6F D8 5F B5 59 9B F9 B7 CA
 3B E6 F2 53 94 EC 95 D9 F5 3D 15 74 75 0B 48 62
 E3 7D 3F D6 F6 06 B0 B1 C0 DD 79 0D 01 B5 5F CA
 40 C3 E4 0C 3B 04 74 2D DB 4B 6E 11 76 DE 0B 15
 36 15 6E 7F 11 52 F4 1C A2 EE 52 BD CB 00 78 47
 4E F9 A5 F7 2D 8D 95 68 FF 14 82 55 FB 3E 8D 8E
 0E FB 26 E7 2F 4D CE F9 F6 5A 9A 3B DA 89 83 DB
 2B 7A C4 FD 95 3D 56 52 E2 6F 44 3C 50 F2 F3 E1
 6E A2 D8 F8 83 1F F2 EE 37 D0 1F 1E EA 44 F2 83
 5A 81 A7 8F D2 D1 8F 55 3C 5D 59 36 4C 83 D9 42
 06 E6 F2 CB 73 97 D2 7A EF 5D BE 01 64 22 59 0A
 2E 1B 7C 34 56 28 78 E7 2E 09 72 89 C1 DB 70 9B
 D4 6D 8B 97 CF AD FC DD 4D 19 5E 81 2C 72 60 89
 CF 48 0A FA C2 6A 39 F4 21 6A 43 E1 58 C3 EB B5
 DD CF 83 4C 78 08 76 01 20 E1 40 72 C0 10 D0 78
 D6 53 1A E1 F8 D0 7F 4C 63 4D 3B A2 17 DE 7C 8A
 4E D6 3E 27 19 00 2B 34 09 43 97 FD 9D F9 39 79
 B8 7B 1E 5F 3B 82 63 7A 24 28 66 7A 92 BA A9 8F
 C0 80 41 74 10 98 02 30 0E 7C 30 5E 93 7F 3B 13
 BA 33 5B 52 BE A6 AB 2F F2 67 D0 5F E8 58 E8 63
 68 F0 8E 7D E1 66 4D 54
* End 3135102206 778881393