* LTspice Encrypted File
* 
* This encrypted file has been supplied by a 3rd
* party vendor that does not wish to publicize
* the technology used to implement this library.
* 
* Permission is granted to use this file for
* simulations but not to reverse engineer its
* contents.
* 
* Begin:
 6F 4F F7 F8 A3 12 7F B1 B2 CD 9C 8F 99 12 72 A6
 92 AF 06 B3 E0 B4 D4 B6 D1 AB 25 C3 23 F8 10 75
 81 CA 58 70 DB 14 84 E0 E4 07 D6 F3 0F 9D 45 A2
 28 B5 6A 29 1F 7E C1 90 0A D7 FF D9 38 29 18 FD
 D3 A8 4D 32 5D D6 16 EC 55 96 FA 6E 53 9F 08 54
 1C C5 3E B9 EC 32 94 2D 35 63 6E A5 B4 6B 99 F8
 A0 83 A6 EF 23 EA AB 58 3E CF 0C A3 60 71 D5 04
 E0 9B 36 D9 AD 3D 2B C3 AA 32 43 C9 93 B3 81 CF
 C2 45 3D C2 C0 3A D9 11 17 9B 87 7F 6B 30 98 85
 05 2A 54 A7 34 54 9A 92 DA 67 6E 41 5C 3E BA 3A
 85 67 D8 5F 76 76 DF ED 28 5E AD C7 F3 F5 5F 07
 1E 20 3F 74 C0 38 68 D3 65 0C B7 35 69 36 FD 03
 AB 2F 3A 9B 44 FC 96 04 51 00 18 88 14 82 3D C1
 EE 8D EE 9C E5 B2 AF 01 20 8B 24 2C 38 46 D7 0F
 7B 37 C9 D8 DD 96 82 74 96 04 AE B1 C3 F5 82 8B
 03 12 E4 1A 30 68 93 FA AC 8E CC E0 E3 BE CD 08
 B6 2E 3F 7A 96 10 DE 9B D2 4C 10 A4 BB 90 A1 0D
 4C E9 10 38 7C 67 2B 14 19 85 62 ED 11 9B B7 B1
 5C 25 89 AF 1A E5 80 F9 26 2E 49 79 A8 8C 28 85
 3F D4 30 E0 8A 13 1D FA 56 8E 47 3C CE D8 3F C1
 87 E5 64 41 A6 88 02 54 76 EC 1B 9C 9A DF 62 0B
 17 20 AA 51 B3 C2 A2 27 AA 38 20 8E 38 C4 74 C2
 01 64 42 82 77 11 CC 7D 42 2B 93 17 BA FD 17 56
 7A 91 F3 E6 18 18 BA 49 7D F8 A0 D0 AC F9 3E D6
 E1 A5 F1 8D 7E 93 67 DD A1 CA D9 39 A2 DB 93 8A
 BE 2A 72 3F 3F B0 F8 93 48 F1 08 0A 45 F8 B0 B8
 E4 B8 2F 5B 65 BE 5C 25 E2 5F 85 44 AC EB 0E 76
 63 15 64 0A 8A 55 62 31 A4 BB 4F 19 61 08 83 AA
 25 65 26 7D 4A 23 36 27 1F 60 9E E0 34 42 B1 2F
 C3 2E F4 A7 DA 15 78 A9 55 7D 0F 00 7D F0 B0 77
 71 4E 19 7F FB 62 C1 93 0F DD F4 0A 56 B4 5C 34
 78 70 4C AE 9A 69 F8 AA E2 47 FF C9 49 A1 7C B1
 25 98 8A 04 9F B0 BA 27 05 CB 9C 03 20 57 1E ED
 F5 3B 4F BD 6E CC C9 FD 88 5E 15 25 AC EC F3 33
 7F CB 1D 04 6D 45 18 23 83 EC 1B 83 7F DC A1 CA
 62 FB 72 C2 A8 12 BE CE BE 6A 86 92 DC 55 50 DC
 36 66 0C 4F 6D B1 26 1C A2 BC F2 19 57 5A 05 84
 0F 76 EC FD 42 61 AE 24 69 CD B3 A7 58 36 3E 75
 CA 0F 16 E5 DF 5C A7 C9 E0 51 67 85 0D 26 E7 33
 F6 DD B9 72 38 EE 2F 8C 58 C7 ED A8 C6 AA 11 BD
 26 D5 8A B6 DF DE 8D C1 54 32 01 DB E2 D5 C5 8D
 95 78 25 AD D7 6D BF 2B E0 D2 4B 09 F1 C7 5B A8
 F1 FC 8C 8C AA 4F 02 49 F2 7A A1 C3 B1 34 A5 D1
 A3 D8 3C F1 39 C3 FE 61 7B 6A B6 12 D2 35 E0 51
 8E A1 FD 0E 78 A5 DA 5A 3A 46 A0 74 1D B2 7D CF
 00 40 A0 29 D6 B1 4A 6E 51 1F E4 C5 0E 81 DF 40
 F7 29 B6 3C 3B 45 34 09 AA 9D 0E DA BB 89 B0 51
 32 C9 20 7C D2 FC 22 3B E4 F8 68 00 C4 DE A1 91
 B4 57 72 88 34 A4 D4 80 62 02 12 E1 47 E1 A8 26
 6B 75 F6 6B 67 72 B1 38 71 0C 4D 0E 98 BE 88 08
 48 15 59 46 F3 BA 38 A4 5E DD F0 42 BB 5B CA 2F
 0A CC 5B 61 80 44 FD 72 36 03 45 21 0E 0D E2 9F
 10 30 5C CF 8B 91 50 B4 C6 C5 4D 60 19 85 92 51
 4A 94 11 D6 C7 17 55 E4 3E DD 86 99 A0 22 CA 8B
 98 FA 45 17 C1 65 A6 B0 14 5F A6 44 EB 95 2A 07
 C5 66 CC F3 B6 D6 D5 08 D7 FF B9 58 3B C3 E2 70
 7B CF 5F 09 00 F1 E6 BE 51 82 8E 90 FB 38 FB B6
 98 67 A3 F2 E3 6F D4 07 BE 6D 14 37 C0 61 23 9D
 09 F3 18 15 F5 08 E1 CA 4B CB 10 D8 75 95 22 BE
 35 9A 25 21 1A 0A FF E5 ED B1 29 64 EA C2 2C A3
 65 EF 65 0A 13 A0 2A 96 A1 B3 A7 3A 95 8C 78 29
 1A 94 E2 9A 17 5D 9C 88 8C 07 04 FF F7 CA D3 0D
 B2 18 E8 8E 21 75 36 D7 6A E6 C4 0B 4B 46 09 D9
 D8 27 54 02 B9 43 79 7E 8C 74 91 0D 2B 95 22 66
 77 E5 39 95 DE CC F3 8E 1A 67 B9 C9 CE 30 8E 10
 CA 62 25 67 EC 57 06 EA FE 1F A5 07 C0 04 A4 B1
 5A 4B 05 CA 65 DD B0 25 FF AD A4 6B CE E3 A0 7F
 AC 44 BD 72 04 AE 37 11 51 2C 66 7E 0E 9C F5 73
 4E D4 A0 BF 21 54 1B 94 FE ED E9 69 EF D8 46 9D
 79 6C 12 71 98 7A 9E D3 F4 80 8E 86 8F C6 74 AA
 7C 84 F4 5C F0 6D 69 DC 48 52 D6 1D D7 A8 07 4A
 0E C7 21 FA E8 8F 03 4F 65 82 EF 12 81 22 1E 1F
 57 04 D6 87 E6 D7 59 AC D6 90 F2 5C A8 33 37 86
 39 B3 D6 AC 05 11 7B AD 32 2D BA C7 2E BD F5 62
 43 06 6C BA 36 C6 75 93 4C 96 77 DE 6E F8 1B 64
 B6 34 DE D3 E8 E6 25 83 B8 A0 4C 6E CA 2C D9 3D
 FB 1A 1A E2 B9 CA FC 61 39 D7 50 18 2D 6A B8 7A
 3A F6 33 9A 3B C0 D6 C0 C9 B1 DF 72 89 2C B4 9C
 6F A8 29 FC 30 2C 67 C6 C8 90 9D FC 61 28 6D B2
 72 7D BD DD B9 CC 15 C3 78 4C AA C5 2B EF C5 57
 1D 31 E6 F9 42 D1 04 36 BF 72 7B D0 DC C7 25 28
 D4 7D C4 72 AB 21 22 91 AA FD 45 A6 1F A4 3C 2C
 B1 1D 2B 5C 5B 77 5D 21 01 25 66 41 B1 8C 70 B4
 86 89 78 47 05 B8 BB E5 FB 49 6B F0 98 1C 23 87
 4C FE 93 46 7F 32 4C F2 F6 02 F8 A8 AB DA 27 77
 74 94 B2 42 E2 24 D0 18 66 18 83 49 0D 46 E2 0E
 3E 58 B6 5D B7 3E 30 AA C5 CF F9 B1 BE BB C4 7B
 7D A5 9B CA 27 F8 5B 7A EB D9 1C BB 02 75 2B 95
 52 3C 55 5B D9 66 15 C0 E9 64 29 A5 4A 70 79 16
 C9 75 61 C7 46 87 64 20 0E ED 8F 52 80 71 2E FC
 F9 1E AD 3A 41 35 43 ED 37 61 4F 7F 61 6E 77 EE
 9B F2 B1 59 77 70 45 F9 DD F2 A1 3F 5E 17 03 D4
 A1 D0 CB E3 9D EC 18 BF E1 1C 8B 5F 62 41 98 10
 9C F4 D9 6E 30 0A 55 1C AD C2 D2 70 AB 1B B1 9D
 E3 1F 5B 43 95 31 CA 86 92 93 A8 7E 7E 6D 14 32
 FF 4F 3B 9F 14 89 4C B5 79 61 58 01 34 22 90 9D
 46 C7 8F 02 2C 04 6E E3 85 DE 12 D1 72 77 76 05
 FE 00 C9 AC 0C 41 6A 9F 38 39 8F 94 69 DA 6C 35
 D6 AA 96 8C 67 D1 18 8E A9 49 D1 67 81 56 FC DC
 B0 D0 6C 29 DD D9 D9 EF 65 6A 2A 67 A1 E0 94 63
 A3 62 D7 DC 0A E8 EF D7 F1 AD 91 38 28 98 91 89
 3B E6 A8 5E 94 66 69 84 E6 A3 D6 D9 B6 10 2A B2
 CA 78 5E 77 A4 1C 45 CC 8C 8F 09 6B DE FC EA CB
 2C F3 DD 80 63 75 A1 53 7D 4A 2E 6D 97 10 D8 92
 39 F9 3E 0A 3B 44 E5 E3 C4 24 8E C1 D7 DA E3 4A
 8A 35 45 2A D0 91 F9 52 A0 01 BD FA BC D2 A1 35
 7B 14 C0 7B 50 C3 FE BD 83 16 0B F2 19 E5 04 21
 9E 3A C4 7D 46 3B 91 C5 6E 7E 89 88 D6 5E BE 43
 C2 74 BC 2F B9 73 2C 64 A1 C0 E4 0E 55 D2 B5 16
 40 48 64 40 6F C3 5E A3 9D 5F 96 42 9A D9 CD 60
 5A D9 9E 6A 44 51 B4 6B C1 04 6B 6F C7 CA BA A3
 10 B3 EC 20 13 49 2E 9D 56 71 86 1A 10 19 CC 82
 FD 98 BF 44 17 2D BB 0A 52 0C A3 0E 13 CA 8C FA
 F5 6E A5 14 8C 1C AA 6C 4D 3F 21 76 CC 94 0B C7
 03 FF D0 12 7B 84 8C 54 79 FF 7C 02 DF 02 53 B0
 38 69 46 05 2A 03 FD D3 E3 64 8E E3 1E D9 8A 7C
 A2 6E 8F 49 7A 3F 8C 71 9E C1 E9 9F 3D 32 2A 80
 06 A8 ED 52 B6 A5 C5 D6 6B BB 41 21 34 81 94 6F
 ED 44 35 71 32 B6 72 A2 7F 3B 35 35 2D 7F 1A 96
 7B 54 C4 7F AC A3 6E F0 4A 31 66 AA CD 09 3C 41
 E5 1F CC 71 92 4C 75 60 E3 10 23 73 9F 9B BF F6
 29 A0 F1 BF 0F 06 64 83 43 6E FF 47 F6 4C 5C D3
 5D 55 7C 74 9A 0D 1E 27 9B B6 53 7A 46 29 D7 70
 DC C4 32 B5 BD 95 75 CC 3D 2A CD D4 A9 2A BC 45
 C8 E5 9C F3 7E CE 8D 85 A6 FC 69 CC 63 E9 A7 88
 19 F9 B4 12 BA 13 CB 1F C6 F0 34 91 51 56 A9 0D
 6F AB D3 7D 9B 57 E6 6F 57 83 5D AF B6 7B B9 05
 16 D9 81 BB B6 79 E7 BF DC 22 C1 6E D5 55 51 87
 09 42 5F A1 13 DD 38 CA 69 3C 94 0A 96 9C 76 55
 59 CB 42 52 16 63 8E E8 8F 05 19 8C 4C 5E 9D 94
 C0 53 8B D8 4B B1 CC 36 DC 44 BD EC F9 E6 19 A1
 9E A7 36 8E AE FC 33 39 3C F2 76 90 63 FE E3 D0
 49 A1 16 B3 91 E4 20 2C 22 86 9F 5E D0 24 67 A3
 E4 0B B3 C4 57 70 6A 71 E7 46 C3 89 E9 B7 3B F5
 66 76 74 7F F0 5D AF BB 35 5A 0C FC 18 55 C9 39
 F5 90 E4 3A DC 7B 98 6A 98 1E 68 DC 02 AA 45 88
 0F C4 73 E5 C9 C9 43 99 E6 ED 2A E7 8D D0 EF D8
 14 BF 05 F5 45 E5 B6 FE C1 16 A9 8F DE 55 C4 A5
 05 CA 38 09 98 65 32 B8 0F CE 94 4A 1D 6E C0 F3
 68 88 B2 25 C6 A2 C9 1C 0E 56 50 F1 9B 0B 19 AB
 A8 F0 F0 DD C1 C2 ED 1F 15 54 76 87 FF DC A8 F8
 A8 7A A7 09 47 7C A2 CD B8 74 33 4E 25 FB 0B 78
 0F F6 1B C6 9B 1E BB DB C4 B1 C7 BA F9 B5 69 90
 A3 A3 48 C1 56 E7 78 1B 3F 3D 35 4A BB FA 17 02
 90 81 0D AF FA 9B 3E 1C D0 E9 D8 2D 57 7A 14 10
 5D 87 53 E1 DE 9B A7 D3 3D B8 BD DD 63 7D 06 13
 99 3A 25 14 4A 6E 45 CC 4F 18 A1 C4 AE 15 82 A7
 85 07 68 57 D1 32 0E F8 FE 79 C2 3A 27 DC 4A A5
 14 73 99 65 63 36 85 C1 DF 8A A2 B1 92 D2 DB 5C
 DC 8B 08 DA F0 5E F0 93 54 22 C2 53 9F 73 88 48
 2A F9 DD 5B 5A B6 97 8E 0D C0 F8 5A 62 F2 D4 35
 2F AF 76 39 83 B7 92 05 02 49 2D 05 EA C2 09 D8
 45 04 D5 83 CB 46 C9 89 DD 48 55 2B 60 9A F7 D1
 C4 DD 5D C8 51 E4 ED 85 E6 30 2B 38 86 F3 C9 43
 61 B4 D2 6F 22 EE 41 18 0F CF AF ED 96 13 70 24
 19 15 40 30 41 8D A2 B7 40 36 63 07 73 E7 04 3B
 A7 73 AB 1B 0E 8A 93 C7 77 79 FA 84 8A 91 0B 3B
 63 26 7D 31 DD 95 F3 0A C5 EC A0 E6 48 6F A3 B8
 68 91 81 01 17 32 E2 07 23 0F 04 76 72 00 D5 A2
 B9 B6 A6 B2 2D 34 CE 40 1D C1 10 8F 65 C0 C2 E5
 4C FF D5 94 26 CF 0E 5E B0 EA 9A E7 D7 C5 00 5D
 E6 26 E7 7F B5 76 24 9D F4 CC 3F 00 EB C3 EA C8
 E7 AD BE C1 A6 CD 9A 86 FA 18 79 C9 B2 24 87 BE
 3A 4B 07 9C E3 E3 8A 85 23 3D 77 DE B8 07 55 AF
 11 36 BE 31 41 0C 4A 59 81 BD A0 48 8A FA 29 3B
 47 1A 64 DC B1 33 F9 42 C6 4D F1 3D EF A2 5D 07
 84 B5 2E 52 19 DA E6 1D 37 28 77 C2 01 92 07 AC
 68 5C E7 31 A5 68 8A 7C DD CA 73 A7 90 27 18 2D
 9C CC C4 EA 46 B0 F1 A7 EA E2 87 A2 80 D4 D2 6E
 2E 67 DC 97 8B 23 F6 B1 B0 E5 63 51 9E 66 4F 98
 DF F0 5C AE B9 E2 50 A1 4E 2E 77 57 0E 2F 50 51
 D4 EE 98 8D 23 34 0A 33 CB D1 A9 4F 7B 4B 48 E6
 30 A6 C7 A0 8F AB 04 2E C6 5D A8 52 C8 0B 31 15
 F4 DA BF 8D BE 57 6A 5E 65 85 94 43 08 D1 D9 FD
 47 82 03 B3 09 62 B7 FC 4F 09 93 F7 17 E7 47 7C
 76 98 18 55 3D D7 AF 9E 88 E3 12 49 27 FF 1E E2
 06 4B E3 E6 3C 49 FC 5F 80 38 91 A9 26 63 06 1C
 2C ED 73 DF D5 F0 29 2C AE 28 C0 C6 83 02 EB A6
 19 B4 49 2A AB 99 B3 C3 3E 57 CF 95 2C 56 9A A8
 54 27 1D A3 B4 3C 8D EC 3F 12 99 2E 52 1A EE B2
 2F 63 1C 2B E1 C6 9A B9 11 39 84 80 D1 35 48 A5
 77 1D 54 AC A0 13 33 82 A5 AA 71 34 DB 07 89 AF
 B7 93 EE 34 F2 B3 48 69 06 32 AB 3B 65 4F 87 2C
 40 C2 9A AE F4 DC 62 2E 16 4C D6 57 EE 6F F4 DE
 5E D4 71 2D C5 3F 3D 77 36 AF 4C 84 DC 4B E9 DA
 EC D7 68 80 FA A4 80 3B 4C F1 38 20 B2 77 42 0A
 7D 55 6C F1 70 81 6D AC 41 94 B6 F4 3E 84 4E 21
 80 70 5A D3 A7 5A 35 1B 27 42 AD AB DB 7B E4 5F
 0B 0D 3A E2 32 66 3A E3 E1 9C D1 76 B4 BE 72 CF
 23 8E 82 F4 0D 84 1C 56 20 D7 35 00 30 65 FE BA
 D9 AE 5C AB 31 17 DC 7D C9 D2 F8 8E E0 5A 0A A3
 8A E9 B3 8C 5A F4 98 4A 1C 6D 74 CE 60 84 59 35
 0F 52 B4 82 A2 E8 C4 FC B3 BF 15 11 7F 5C 8C 87
 5D 7A 06 FA C4 92 91 AE 13 74 BB B1 45 9B 54 C9
 D2 5E CE 2B 0F 6F 38 8D 7A 8F 3C 89 A3 8A E0 24
 3B 1A E5 06 58 CE 92 AA 88 D4 30 94 34 78 59 7A
 6E F6 49 52 EE 44 1C BF E1 BD CD 4F 0E 0C D8 56
 13 ED F0 C0 26 00 1F F7 0C 82 C3 B3 06 CA 8E 46
 BC F8 7F 7B F5 F4 BD 64 F6 D8 A9 A9 56 EA 82 9A
 62 24 0D EC 1C B0 48 CB 3F FB A2 FA DC D7 E8 95
 B8 07 74 20 EB E3 99 BB 49 0A 24 56 99 64 C2 91
 27 C4 82 0E DF 50 23 87 BB AB 80 7F A9 1A 11 D0
 56 9F 16 AE 56 C9 AC FD 97 F3 F5 A0 5F 2F 75 07
 B6 7D FB 4F 93 82 56 41 E6 0A A8 30 2D 4A DF 0D
 FC 37 A3 BE 7F 03 5E A8 54 A0 79 6E CB 48 5F 45
 0C 2E 3D 63 06 49 3F 41 E1 E4 32 1F 68 0D BC BB
 4E EE BB 64 1B 26 EA 82 F0 CF DE 8C 5A EF B7 64
 64 93 CC 4E BB 3A AB 06 EE E7 B9 82 A5 85 2D B8
 29 D6 73 EB 20 EA BC CF DD 9A 87 7A A3 33 DA C3
 C7 B4 9E 35 E7 D1 E9 EF B1 77 CA FD 11 E6 01 CD
 61 0A DF 1D 79 DE B4 B8 6A E0 1A 09 FF 65 88 E0
 7D FE 3C A6 1E 99 91 C1 29 12 E4 C4 1E 1E 2F 2C
 29 69 1C EB F3 72 BD 7A 7C 9F B2 46 6D 2A 9C 7F
 DF B7 44 CB F2 21 27 68 44 58 DA 17 D2 15 59 CE
 99 47 F0 79 9B 93 29 CF F2 B2 64 83 52 9B 19 F6
 AC 4F 52 11 1C EC 3F 61 18 9B 28 D4 B5 92 B9 AE
 8D 8F 4B 60 E0 24 25 90 6E E5 3A 0B 4A 90 DA 20
 8D CA E5 9F EE 2C C7 FF 4D 61 86 7C DD 19 B8 4A
 20 72 69 9E 2D 9E 5F 52 D2 DC 23 6B D7 DE C8 99
 01 66 9F A5 A1 70 04 51 2C 11 24 93 BD 2F 1E FB
 7D 6F 31 22 FD 46 F4 1D BB 7F 58 A3 29 1C 91 43
 8C 03 3E 1E 5F CA AC D1 AD A8 09 33 DD 3A 7A 60
 E2 86 F4 31 01 46 35 AF 3E 75 A2 D6 E8 C8 81 44
 68 9B EB ED 3D F8 04 2B A1 BE B5 0E BC F1 B1 F3
 28 EB D4 7C 7B 19 FC AF E7 16 A8 46 AB DA E2 51
 DD 14 BB 50 F5 FE FF 96 55 6D 02 2D F3 B8 53 F3
 79 04 4E 12 99 68 39 E0 41 8C 09 1D E5 0F 5C DA
 38 62 9C C8 FE 6C F0 A5 88 BF D0 12 2C 10 4D 78
 BC 73 D1 1B F9 C7 DB F5 24 3C 66 A3 BC 38 78 3D
 EB 1F 1A A4 2F 62 DB 7D 22 20 2C C5 D4 1D 83 28
 1C 3B AA 54 E9 EB 5F 45 E3 F5 15 42 E9 79 4D 00
 23 F7 CA 8F 80 AF B5 F6 0E CC 73 3F 53 CC E4 F2
 50 27 8C 1A A6 E8 AE 76 0C F6 ED 32 FD 41 6D 8D
 8D B4 1C AF 71 A3 5E 26 99 16 1F 2B FC 69 3B F6
 4C 93 B0 56 D9 31 C0 85 6A 3F FA C6 EE 95 E7 A8
 65 17 93 42 33 87 84 C8 73 C9 91 29 AD 6A A9 80
 EC EB FB C5 51 34 CD C8 3A 4A 62 60 7B 78 F5 6B
 8F EB FE 8C EF 1B 88 B9 CF B3 46 9A A7 E7 33 7E
 EA D4 3C 67 C2 60 83 9F A4 2C 9A E4 0B 20 29 8E
 FD 20 A0 FD 9C 44 B3 72 CF 20 8D EB 2D 0E 30 43
 4B 4B 37 7C 07 53 1B F6 C4 6B 53 36 A8 36 57 10
 4F A1 E2 5A F2 7B 57 55 F8 1A 23 40 0B 66 DB 6A
 63 02 89 78 48 3D 99 EC 3F 7C 90 D7 5E CB D4 39
 85 32 9A 0A 0A 5B 21 16 90 A5 56 A1 4C B3 99 61
 0B 90 C6 DE D6 1D C2 C9 88 6D D9 C9 69 08 50 36
 4C 34 04 E2 29 36 B8 CC 9F 14 28 08 7D D1 48 0C
 29 8B 37 AE 21 B2 FA 8B 18 E5 E4 D7 3F 9E D1 E5
 28 ED 33 51 B5 D0 C7 19 B6 89 22 B0 C8 13 7C 7D
 34 3D BD 1F D1 55 52 14 60 D7 3D 90 0E D4 75 67
 26 82 56 3A AE AF C4 FC 65 DB 64 B6 0D BB 7E 85
 FE 7F 57 25 55 59 24 00 B0 F2 69 A6 EF FB 32 C1
 B1 2B ED 9D 9D F9 94 0B 9B 8C 09 CE 53 6D D3 B4
 01 C1 A9 E4 83 2A 60 37 D4 7E E3 6D F1 ED CE 10
 BB 33 96 9F F6 93 A1 39 E2 C5 CC 6D 10 5C 24 EE
 AD 01 52 F4 77 15 80 C5 B7 C8 35 AB 40 CE 6D 19
 C4 41 0F B7 81 D6 40 4C 6B CA A4 13 51 77 DA 58
 1A 3A 89 F5 E9 68 2C 02 AE 8F 1B AF 30 11 AF 58
 A9 45 E0 18 5B 8A 13 F2 BC 5E A4 A1 46 94 2F 34
 9E 8D 53 78 58 B6 9C 52 0B 13 FD 0B 7A 16 12 A4
 4C 83 8B A9 00 4F EE 77 C2 2E 9D 4E 4D 1D 46 76
 66 7E 90 D5 DA 10 BC 97 26 C6 4A 4D F1 30 D5 30
 3B F7 A6 07 B6 2E 29 A1 D9 33 03 8B B9 B1 A2 DD
 04 78 F2 E5 09 F9 04 F9 CD 59 E6 2E A1 94 66 6B
 10 D3 30 B5 E2 94 DB DB 34 B3 A0 59 27 FD 30 EE
 07 CE EA E5 65 0E 10 BA CF FB EB A2 47 88 F9 7F
 42 F4 F5 0B 06 05 01 B6 87 A5 7C FD 55 3C F5 A6
 9C 6F B0 7C F6 DF 8A 3A 45 18 9A AE C5 96 EA 29
 AB 3B 15 5C 2C F7 F5 85 AB 37 1B 17 C6 F3 F4 51
 4B 26 96 CC 25 0E E3 00 71 4B 2B C7 35 ED 12 9B
 BB 53 7B DB DF 40 1A 50 AD F9 49 64 57 E1 D2 4A
 41 B2 27 C3 40 C2 1F 7F 7C 10 AE 8B F2 FC 9E 2C
 E2 09 CC 17 C6 52 09 63 00 31 19 7A C8 B4 14 5B
 C2 BD 4F 8E 57 B1 A7 21 33 C0 A7 DB 61 F5 86 C6
 4F 6A 27 8D 43 0C 50 D0 86 25 0B 64 51 B7 B9 2C
 9E F4 F7 05 95 3E 0F 05 6E FF F4 92 AE B1 DF C7
 EB 8A CF BA C2 02 FE 89 FA 19 5F 89 5A B2 FF 01
 DA AE EE F8 92 0C A8 2F 6D 66 82 F4 3C 3A 86 06
 CF 12 5C AF 8C 51 F1 44 D7 4A 6C 45 3C 22 2A 99
 0C 57 5B 17 F6 53 9C 9C 02 60 6C 90 A4 92 2A B9
 5D F9 7E D3 10 6E 97 56 72 BB DB CC F9 D7 ED 72
 79 7D 6B 2C E7 7F 75 3A 94 05 7F 37 E9 32 4E E7
 3A CE 4D 3D FB 13 5B C5 E3 3D 6A 41 64 A7 9E 44
 F8 00 76 38 C9 83 B1 85 D7 BE 73 5B A8 DC A0 5D
 76 4A A4 74 21 36 7D E3 87 81 C0 15 B1 E7 12 07
 17 74 F4 96 58 3C 06 2F 28 C0 5F 39 9E 1F 63 BB
 17 E9 48 1A 70 4C 99 BA 65 0A 25 E8 EB DF 31 AD
 5E 4B 6B 7C FA 07 92 6B 65 EF 24 11 BF 2D DC 02
 79 62 6F 49 57 C1 C0 E5 4A 06 54 5C AA D7 25 20
 AE A1 A7 EA 45 DB 9D 88 BF 7E EE 29 E0 A7 DB 5E
 80 4D B1 9E 13 5F 9A 6A 1B 79 45 A0 69 33 C9 7B
 DA C5 9B D4 E3 62 4E 9E BD 2A 97 E2 CE 57 46 27
 69 B1 87 06 76 32 A9 E8 07 69 81 42 AF 7E 47 9A
 4D E1 95 B0 E7 E3 48 F2 9C 6D A1 80 9D C3 B6 51
 DC A7 A0 2F FE 70 07 09 D0 32 02 8E EE 4B 0B 83
 33 B1 30 BF B3 61 94 62 29 9A AB B3 B3 C8 EF D4
 5D 5F 7D E4 70 E0 73 2C CD 58 A0 0C 55 40 68 4B
 02 6C A6 3B 9C C4 EF AE D9 88 44 C2 5E CB 94 0C
 47 A4 5E 3D 24 AE 1F 0D B6 C0 10 03 0C 12 E8 52
 0E 51 CC 81 8F 1F C2 0E DF 6B C4 6D 05 C7 5B D6
 03 13 4B E3 49 BD 96 59 9B 5B AC AE 3B 36 69 A6
 6C 4F 8F EA 23 C4 84 7D 93 99 C9 11 90 5C 29 2B
 A9 07 BC E3 16 19 20 BF 1C 73 66 C1 9B 55 49 47
 BE D8 C8 80 2F 2D D8 1F 0A 42 70 57 31 30 F9 93
 D7 0D CB EF FF A5 CE 12 BA EA EF B6 C6 4F AC E7
 5F E3 3C EE 9D 12 94 E7 FC 33 49 E7 28 90 F4 6E
 7A 90 94 C4 06 EF 09 98 43 B5 89 06 DC 4B 67 88
 DA EE DA BA C8 A6 75 6F C3 81 B3 7F 91 1F 4A C2
 79 89 88 BD 39 1A EF A9 FA 3C 0B 54 5F 33 61 55
 1B B5 8D 90 E4 BE 42 99 3A A7 8F 2C 06 CD AE CD
 50 5F 60 DE FB 69 62 9E 65 7E B6 66 D0 E4 1B 9E
 C3 6A A2 09 9D B1 85 3D 2E 32 DF 95 79 05 ED 3D
 E1 2A EB 47 08 74 AC F9 0D 7C 79 01 D9 53 CE 2F
 2F 83 FB D1 B0 9B 6A 60 C8 CE 2A 3A CF 09 EA 55
 E5 DB 2F 24 4D A4 2F 8A 9C B3 BB 0E E2 28 49 E6
 97 F5 84 AE F1 A3 58 A3 79 46 8F 30 3B 65 A8 22
 A9 07 12 5B 4C F9 81 C0 52 21 71 E9 0B B5 77 9F
 F8 A8 31 29 E2 F8 16 8A DE D5 E5 0D 42 D5 61 C9
 30 49 34 76 95 53 03 89 48 61 6D 43 5C 88 A6 08
 F1 8C 36 08 98 36 D5 19 F6 69 4B F0 21 4B FD EA
 8C 99 F7 F5 DD 69 D3 4B 32 D4 77 98 89 97 F6 59
 FA B8 3A A3 43 B5 73 F6 D4 B0 3B 86 C9 B0 7C 4A
 4D 3A 6B 5D D6 A0 58 CE A4 E9 AD 16 66 E9 30 4D
 5B DC 43 BE E4 00 2C 4F 11 D8 10 7D 98 45 02 BE
 07 50 D1 C0 E7 F3 C1 8F 2E 6A F9 52 16 1A 93 50
 64 9E 41 45 6C 33 30 AC 66 24 93 53 60 B7 19 80
 EF 3C 27 BD A7 5A F6 8E 2F B4 0F 51 2D AF 9B 0B
 AD 0D 90 F2 2B 11 2F 23 CC F7 C6 E9 B6 F0 3A 4A
 32 C3 22 A1 28 10 0B CD 76 A8 5A 77 10 A2 AD CA
 59 8D 30 E6 81 8E 00 2F 32 51 9D 09 80 9A 36 65
 28 15 CB A9 1F F6 78 D2 DE 4E 4E 46 0E 7D AD BF
 7F 4B 30 CC E8 EE 5A ED 13 51 5C C6 5A 1D 1B 4C
 D5 9B A1 92 10 E2 6E C5 F8 F7 14 3E 3B 98 F5 15
 96 22 CC 95 02 BC 09 48 B7 5C A1 6C F3 96 F5 9D
 22 7A A8 C0 4E 8D 2C E0 E5 A0 3F 11 49 FF AE 86
 C6 CB BB 9D 41 74 CA 81 E6 D8 90 A0 F0 3D 77 59
 00 33 8A CE B3 44 16 91 D7 E5 AC F5 A5 35 7A 90
 CB 0A F5 87 5E 45 11 13 48 76 A6 C0 68 6D 5D 5B
 22 D4 14 76 5B 0F 37 A3 6D BE 21 97 16 E5 1C F3
 1B D3 95 D8 D0 3C 4C 3D 74 67 82 FF B6 D2 42 03
 34 74 0A 72 A4 5A F3 68 2E E3 3E 29 28 75 4E CE
 DA 85 62 AF B4 64 92 CC 12 F9 32 9F D1 37 62 4F
 9E 79 61 AE 0E 15 06 7D ED 64 7D 62 43 47 BC 56
 10 B6 59 6C 32 71 66 DF A4 48 F5 6B A7 C3 9B B2
 1E 93 F0 02 B3 27 7C 05 A3 E7 AC C2 0A 4C 1D 88
 A7 BD 6A BA F6 36 D6 41 AD 1B 13 E8 18 FC EE 51
 56 1B F7 DE D7 D1 1A 18 E5 60 89 13 78 0D 2C 21
 39 1F A2 69 D0 DA 41 39 24 43 64 18 E8 94 D8 43
 8B E1 83 46 01 20 08 56 41 E0 AA 7E 83 F4 C9 71
 9F EE E6 46 53 F3 D9 B5 91 8B DD 3C DC 10 5D 6C
 CA 24 9F 89 79 B6 58 EC B9 D9 D6 99 94 90 26 82
 A8 22 16 42 49 52 03 E7 D9 5D 73 6C 8C 2E 31 D5
 A8 30 22 E4 7A 60 DD FD 56 73 8A B6 E5 8E 22 02
 B3 F7 7F 98 66 25 6A 39 CE 49 CF 3F 4C 8D BE E7
 56 B5 05 97 40 D1 69 3B 4A F3 E4 15 0E C0 B1 E3
 27 2C 0B 35 FB DA 6E 63 11 6A B5 58 8A CD 24 A6
 B2 14 60 E5 DA 80 2F 42 7A 38 D0 70 AC 66 EF EB
 18 FB 4C BF FD 81 78 3A A4 F2 CC B7 C3 53 8B CD
 C6 DF 8F 64 8A 5D 32 5D 8E 77 70 24 FB E9 29 98
 6B A8 EC 30 99 96 08 B2 A9 E6 21 54 AC E0 60 D8
 56 A1 B1 EC EC 75 BB 30 49 76 4B 5D C2 A4 E0 D4
 69 93 81 6B D7 38 33 4F 4A CA 9B 8D 7D D6 18 07
 36 3D FA 96 9F 63 4E 58 48 83 4C 6B 56 53 B7 47
 AE E1 81 DC 78 F3 41 AE 02 62 14 65 5B C3 1D A1
 26 EA 8E 4F 08 BC F9 37 B0 64 08 D6 B7 12 FE B6
 E5 A5 5F 7E 39 21 9E 5E 18 FF C9 FB A9 C5 AF B3
 5D 3A D9 E8 9B 4B DA A8 71 E4 7C 25 71 B0 8D 4C
 77 EE 31 3B F5 82 C8 66 67 BF 3D 59 10 42 DC FF
 99 8F B8 F9 F5 4A BF 35 B8 58 C7 87 4F CA 87 94
 6D 88 C2 78 A9 53 B6 18 60 5F 5C 85 89 9F 3F 60
 4B C8 66 AD 18 25 04 F1 9D E2 A1 75 EB 46 2E 07
 88 CD E2 9C 49 AF 47 4A 2E 8D DD AC 7F F5 C2 01
 CC 21 1B 7A AA 09 00 EC 70 DD 40 AC FD 41 C2 D2
 73 00 10 96 5D 22 89 7B 70 8E DB 8B 33 E4 3D CD
 91 9E D6 0F A4 22 25 11 84 46 06 6F 00 64 BA EB
 F3 07 7C A2 2E A8 95 28 85 E5 6D 98 0D 86 F4 94
 1E 71 7F AB 3F AA FA 50 68 7B 64 6C 71 99 62 D8
 7A 97 08 5A C5 C7 30 7E D2 6A 5E 80 FA CC 28 2B
 BB F3 5E 0F 30 3A E2 29 9C 1F 4B E4 0E D1 A8 3D
 9A E6 3A CE FC 93 10 92 B1 A4 27 EA DD E3 B4 08
 8B BB 1C C2 0A 6B E1 B8 67 F9 8D 3B 3D CF 6E 08
 59 C1 26 E2 AD E5 B7 59 03 45 8E AF 4E F2 BD 7E
 CA C3 D3 47 56 54 FF E7 2A B7 07 C4 C6 9E 25 B7
 F4 9A 67 DD D8 8F E6 ED B7 0F 92 53 F7 2F BD BB
 0E 5A 0A A6 63 B1 B6 48 18 61 12 ED 23 F6 D9 D1
 86 61 16 9D 56 7B 77 63 85 A0 10 13 DF 4D 8B C9
 90 1E 8B D8 46 36 78 55 C2 AB 8F 7D 93 FA 4B FF
 58 16 83 F1 1A E7 41 87 9A 23 E7 4A A2 C2 91 DE
 25 B4 89 90 E6 AC F1 3C 41 A8 2E 0F 32 A8 DE A1
 E3 61 EB BB 9C C2 C6 79 9D CA 3C 46 2B AF D8 CB
 3E 7E F2 BC F7 F9 24 A8 12 7F A8 23 1E 09 3D 20
 96 E2 70 34 C6 F0 3A AE BD 93 99 3A 39 52 42 54
 E7 81 C7 ED DD 1D 8F 26 C4 C7 1E 50 F0 1C 1E 43
 51 26 B6 7E BA 55 D7 D4 B9 07 3E 68 6F F8 2A 4F
 AE FB 06 7F A8 4A 44 80 23 01 9B C9 26 89 3E 8B
 30 90 67 1B F1 9E 25 5F C8 D7 61 70 CE BB FE EB
 BE 93 26 B1 26 17 9F 89 68 D6 8F D0 E7 35 C5 A6
 EE 1C 61 DD 7A DF FE 8A E7 D4 03 FD 59 DA 5C E2
 46 E1 8A F7 14 D6 0C 81 BE 8E 58 EC F9 0A 91 B9
 47 2D B1 5E F5 9F E2 F5 05 00 6B C6 77 DA F6 7E
 8B B2 D6 F6 C2 4D ED E9 AE 28 18 B1 07 45 BF 4D
 69 72 68 C6 7D 2C 9A 84 96 ED 1F 55 C8 FD 9D 36
 40 75 C1 DF C3 53 7C 92 08 95 A4 FD 4E D3 54 1D
 C7 33 43 EF 05 A8 A9 D3 32 18 9D FF C6 69 F7 04
 CF 61 F3 B2 D1 3E C6 D3 A0 0C BA 44 58 48 95 66
 08 87 E5 61 AD A6 1F 1D DF 7F 6A 7E 87 A9 2B 22
 38 B4 BD 23 05 83 BC FA 25 25 D5 AF DB B5 D4 81
 38 AE B3 A9 5E 33 E2 AD 6E BA A8 62 F6 B8 AE ED
 F7 D3 87 87 A6 E9 FE 22 43 75 32 4A 5B 2A BB 8D
 CA 7A 32 AE FF 9A 66 5E A9 F3 F7 85 BB 44 9F 2D
 99 3B 14 95 EA 40 4D F8 B1 A0 CA 14 62 04 D3 72
 BE D3 70 FB 80 15 CB AE 40 7C 65 40 77 76 C2 C8
 65 E2 73 24 69 6A ED 39 25 96 49 C3 A6 AF 28 12
 C8 41 63 48 72 3D 07 1D BD 3C 3E 65 7C BD A7 A7
 7F 51 5B FD 78 D9 5B 88 48 BB 19 5C 13 2B F5 48
 81 2F B7 82 D9 68 CF 4B CB 94 4B 3D CC 52 5B 70
 6D BE 07 43 61 0C 49 09 5D 74 5A E4 D8 CA C6 EC
 0C 33 9D 9B 04 0F 0F B5 5B EC B7 16 28 AF 24 97
 A4 BA BC C9 52 7D C6 16 54 99 34 00 18 4F 82 61
 4A B8 46 7A AC 50 33 64 18 A2 D3 D2 47 BB FF 2F
 41 3A BD 09 A0 87 40 39 C8 33 FB 6C FD A5 7C 28
 9B 26 E1 A2 C4 72 8F C4 C7 98 2A D8 07 10 2B C2
 84 78 90 61 9B 76 F6 F0 45 08 A7 8D 2A 61 4D 6C
 ED FF 31 82 BE 13 EE 48 20 B9 FC DA C1 FA AE D6
 DD 50 39 1B 08 1B BF 56 B9 89 82 D6 0A 87 02 A5
 51 BB 36 5E 9B 89 66 6C C6 50 D0 46 88 73 0D 8B
 8A 64 33 5A CC 54 92 3D 1E 9F 3B 62 C7 B8 E8 24
 D6 9B 55 0E 69 E6 74 5A 2B 75 84 03 74 D9 83 3A
 D6 86 DF 70 0A 68 75 77 59 AE A3 C9 89 F8 B2 58
 1A 91 0B 0E C4 03 F7 0D A2 81 67 68 A1 14 EC BD
 83 9E 94 0C 11 56 33 AA 62 97 53 9F E4 65 6F DF
 9A 77 DA C5 B3 29 7C AA 18 DC 12 76 19 AF 76 E3
 9A E2 27 15 40 00 ED CB 15 A7 BD ED FD 10 A6 64
 5D F9 91 47 53 2B 49 CE 4B 30 E6 58 F5 D7 1F AF
 8A C8 6D 1B 46 35 40 93 51 D2 62 25 D4 11 BB 3D
 B6 4D 7C 77 2E FD AE 0E DB 97 C0 E4 45 19 9D 63
 07 F9 AA 62 19 02 BD 02 4C 13 92 A5 02 B6 58 C1
 10 7D BF D1 2E 00 BF B5 58 86 89 34 D2 99 A1 B2
 15 13 05 D5 66 03 E4 34 24 F9 9E C3 16 82 DA 06
 B4 D0 E5 8B C3 A8 71 82 3C 78 CE 85 DE 02 16 69
 F8 CE 72 A2 4A 69 B5 98 76 76 FE 09 15 03 F6 27
 BB C3 DB A5 D2 D9 5D 84 B1 29 A6 0D DC 11 83 11
 3F 21 54 87 72 63 6E C0 E9 4B 92 CE 72 DC AC 94
 D3 BD C2 9B 16 E9 AD B1 4A 0F 7C E5 AC C0 3D 33
 26 C6 04 B4 47 D8 82 80 33 08 BE 67 7B DB 10 32
 D2 44 EC 9A 61 45 02 E8 9B 4A F2 51 D1 62 6A 72
 CC F8 C7 3A 11 D7 44 82 E2 FF 49 6D D4 5C B1 4D
 7D 20 8C 4E 23 A1 CE 76 19 BE 3D 22 E5 17 67 96
 E5 08 B0 DB 23 09 DF FD 1B 46 45 8C 58 0A 1C 8C
 D0 7B 81 F3 92 84 89 AA BB 40 7C 3D 99 2E 33 78
 48 E2 8C 3A A4 8D 5E 9A F0 ED 14 6C 28 39 38 F4
 14 6E F2 15 E9 1D 8E 99 A1 A2 41 84 1E 33 A5 61
 77 CD 00 F3 FE 2C 3B D1 61 04 05 B4 EE FE 84 92
 D3 06 EE 2F D4 E6 C6 03 47 10 38 47 B5 57 28 D6
 72 69 DE D1 DB 30 E2 58 FB B8 35 E2 D6 4D FC B2
 62 FA B6 46 77 80 C7 65 70 26 49 DF 5A C4 BA 67
 86 E6 C5 8E 67 6D 14 72 DB 2C C8 93 96 4B B8 F6
 14 75 D2 08 08 A4 39 89 BB F0 C8 BC E1 E9 6E E5
 32 6B 3B 0D BD 42 AF 80 34 C7 AB EA 25 43 0E 25
 29 B4 D9 8B B1 C8 30 D9 72 71 DB 28 62 F2 FE BF
 C7 36 58 27 4A D1 B0 2D C5 B2 24 9C 11 AC 14 7F
 C0 09 10 96 18 1F 75 45 39 41 97 BC 74 CF 42 2C
 D6 FB 42 44 71 82 8C EA 02 4D A5 7D 7A 13 48 C9
 F9 80 2E 1A CE DC 3F AD F1 19 00 40 89 F9 37 08
 A2 DB 68 82 B6 D8 D4 1C DB E5 9C 37 A5 AB 3C 79
 2A 44 05 73 6A 46 FA 63 2E 07 99 4C C9 55 4E 14
 0A C4 CB C4 1C 1D 31 9F 3B D6 8D 0A 49 D5 17 44
 11 EC E5 34 30 97 6D 05 15 E5 25 D8 6A 65 07 22
 07 00 BA 9A 1F C1 4E D0 3D 3F 63 21 56 AA F6 D6
 55 A8 DA CE 1B 15 DC 0A 06 50 E2 2B 6A 57 11 CD
 3F 91 F9 FE 7B D0 BF E9 BA 6C 97 32 D3 24 45 47
 DF 3D B6 64 14 8F BC A8 D2 F4 1D 44 E2 29 8D 40
 A9 80 AC B9 A0 05 64 81 A7 65 98 7A 64 2F 4A 50
 ED 8A 29 A8 F4 87 ED 23 D8 18 25 97 F6 63 69 79
 71 74 C0 09 9A 45 1E C1 6C 5B 3B 2D 64 DB 33 AC
 9A EA DD 10 66 B5 2E 4A 47 2F 5B 29 FA FF F9 F3
 5D BD A9 42 88 C2 BE BD F9 2D AF 39 94 9A 78 6B
 2C 8E F9 60 44 EB F8 62 22 E2 B0 2C AF 76 E4 04
 1F 83 7E F6 E8 C2 B3 6D BC A5 69 59 3E 9D 3D 76
 6F C2 2E AA 0E CB 2A 5F F8 AC 6B C3 20 CD 75 36
 72 3D 44 34 E5 03 6B 7A F7 59 EE 45 60 5C BB 54
 68 70 80 9F F1 29 48 85 39 8D EE B8 FA F7 92 71
 57 4D CE C9 6E C1 B7 CF 01 7D 17 26 D1 08 9E 3E
 67 CF ED 2D 7C 97 5B B8 81 E5 BB 7E 27 0C 06 44
 D0 95 5F 8E C0 3F 8A BC 59 9A B9 12 57 78 AB 12
 2C C8 6C F6 F0 01 06 97 8F F8 1F 60 24 7E 4E E9
 A2 A8 CE BB B5 04 A1 A1 65 40 90 03 20 33 52 F2
 CB AC AC 63 67 3F 96 20 DF 80 37 1D 1C E8 41 A9
 2D 7C 98 E3 35 24 92 B0 B1 27 A9 B1 49 F5 BE 6A
 33 F9 90 7B BB 3F 66 F3 2F 09 7A 53 3D A3 EC 86
 DA 28 C1 50 1A EB 8A FA 8E 69 32 72 95 B1 B9 20
 29 80 85 C0 EF ED 61 66 6F DA 98 78 DA F4 22 1F
 25 CC 8E B4 13 AA BD C8 5A 00 D7 0F D6 04 91 8A
 C0 FD CF FD 28 9F DD 0E A7 4A C6 96 91 D0 A6 7B
 DD 94 1E 92 90 E4 F0 C4 1E B2 41 21 AE 0C AA A2
 D4 FE 1A E7 57 DF 7E 5F 5A 2D E3 2C EA 20 AF 7E
 4A C3 AD 23 2C 65 06 F4 FB 56 A7 53 82 9B 57 3E
 13 C1 0E 64 3A E2 58 08 36 48 A1 DF AF 68 E7 3F
 FA E4 F3 C1 66 34 38 1E 41 8A 0A FB 71 77 42 85
 D0 A8 82 37 4D D0 34 C3 43 8E 37 96 38 D1 AD 3E
 91 02 D9 79 3B EC 64 3D 70 99 79 55 69 A6 EB B3
 60 F7 47 3A 47 DD 4A 6D EF FE 24 77 2A 9B 4F 22
 85 99 B7 05 F6 AC A4 7D A1 09 36 66 19 64 4A F7
 F0 AC 55 2A 32 B9 1F 05 44 92 60 32 C8 0C 22 BC
 03 D1 D1 01 09 B4 00 AA A2 5D 8A 69 A0 AD 80 0C
 BF 26 70 5F 4F CB 95 32 9E EC 40 91 39 FA 45 87
 4B 45 3C 9D 65 1B AD 42 B7 98 31 58 70 CF 0B CE
 C4 B0 22 58 F2 B5 FF 47 BE 46 DA F4 0C BA 64 DF
 C5 B2 13 90 40 67 6C EC 9F 0F BE 2E 9B E3 E8 88
 26 B6 91 00 EA E6 F1 D2 58 CD 1A A3 18 56 03 15
 40 0C 6D 2D 31 BE D1 35 2E 0A F1 A0 E9 05 4D 1C
 A5 83 63 BA B9 1C E0 94 70 70 84 1D 75 DD C2 6D
 DE 69 6D AF BC B7 D1 63 4F 89 8E 5E 51 DA 46 35
 E6 6C C7 EF 60 C7 F2 70 71 62 75 29 E5 AE 4A 0B
 F5 39 68 47 5F AD 3A 75 2C 98 47 EE 09 E4 61 FF
 80 4D F2 AC 47 48 59 80 52 DC B9 29 E9 01 4E F0
 7B 03 D0 01 26 B1 CD 5D D3 BB EE E0 71 57 FC 76
 D7 E2 2B 65 F8 4B 69 22 33 EA EF 7F 4A D5 33 D4
 22 18 42 52 04 7F 59 76 0B D5 E7 8E F5 C8 E8 F9
 B0 0C CA BF 0C 94 19 D3 B7 FE 66 79 FB E6 7D 8C
 5D F0 6A F4 4A 24 9F D0 41 86 6D 15 74 AF 9B E5
 39 DE 27 6E C7 F0 26 8F 9D 35 63 AC C6 DD 9B 1B
 90 A7 37 4B 74 66 A1 CB D1 E6 FE B6 C5 3C 5A 1D
 4C 50 92 20 88 3F AC D9 9A 73 4E E3 B7 FD 4F 99
 CD 79 EF A7 E2 7D 81 49 5E C3 6E D9 7E 09 49 58
 CA 4E 68 55 DC A2 07 E2 D7 71 8B 45 82 82 B9 ED
 FC B1 28 0A 3A 51 E3 09 76 EB CB 52 9A 05 4D C9
 7E 00 62 2D 8F 2A C0 3B 15 F2 67 BB 15 BE 2F A4
 84 3E A3 D0 C0 B8 28 D1 90 65 B3 AA 0A 68 70 9D
 25 48 7B B8 EE 85 53 50 11 32 E7 50 DB 19 C9 1C
 FA 32 B9 BA 2E 49 35 39 C6 6D 5C E6 82 08 BA 44
 2C A0 1B 4F 82 EF A5 6E 30 4F 5D 40 C6 79 40 1E
 67 F5 A0 18 0F E3 D4 3F 2E 75 23 76 AC 92 BA F4
 3F E0 61 66 66 69 25 5E 80 3F 76 28 05 76 36 5F
 5A 85 F5 8E E7 2C 4A B7 A4 67 D1 87 83 54 51 3A
 81 38 59 02 75 18 1D 5A 8F 82 4C 50 D8 5E F6 EB
 AF 33 78 85 43 89 36 5D 74 79 31 CD 61 A1 3A B4
 D5 73 45 20 F0 7C BB 16 56 66 44 22 0E A4 C9 02
 FD DE 58 CF 2E 29 DE 23 BF 28 BA 11 61 47 F6 FB
 75 C0 E7 29 8F B2 89 E5 E1 C9 68 C9 98 88 F9 54
 85 AE 31 51 51 C1 13 91 EE 9C 2A 60 A4 6A DC 68
 41 48 C7 7D 90 9E A7 21 94 DB 89 4E C6 62 FA 6D
 C4 04 57 2A E1 9A D3 BC 22 E4 A8 EE AA 52 1A B0
 27 16 BA 5A A0 84 01 05 B7 CB 6B F1 B0 79 2B C7
 24 DE 19 75 B5 E6 7E 9F 5D 65 9A F9 FD EA 24 BB
 AC 62 CD BC 5C DB 6F 5B 63 F0 4D 9E 63 56 8F 7A
 26 7E 54 E9 69 37 DD E0 0B 51 DA 61 50 05 A5 C4
 04 79 DF 01 CE E4 21 91 D3 76 92 8A 2B 92 2B AF
 B5 27 51 88 30 E2 C5 88 A2 44 50 CF 96 53 20 AC
 76 A0 CC F9 70 4A 2A 80 99 FF 52 25 31 D6 6A BA
 D7 ED 59 07 1A 95 73 56 7C 83 BA E0 01 58 A6 70
 A4 93 E2 35 ED 3E 86 4E 85 97 90 29 6F 0C 4A 96
 CE A6 E5 1A 9E DE 90 5A 52 87 5D C4 53 F9 91 6A
 D1 98 BB 9D BD 21 C6 CE 35 DF 21 12 7C DE E6 0D
 E9 BB 88 42 85 94 92 DC 10 DB 12 B3 4C 46 A6 B8
 6E CB 4F 69 BB 2C B6 4D D5 E9 95 D1 B9 CA D5 60
 D9 BE 2B 7E FB FF 85 CF C3 67 0A C7 E5 9C 93 C3
 6D F7 B0 B8 E8 BD 5C FE E8 E7 2B DF 1C 0A A1 B7
 91 C7 01 45 76 69 4A 33 7C 2F 24 EB 77 EE BB 84
 17 6F BB D3 DD 59 96 95 EE DA CB 3C 3E 82 CC 24
 1E C1 7C 78 0D 2D 05 58 0B 10 46 56 5D 0A B0 33
 1C 14 51 58 ED 4D 6C A8 13 ED 3C 73 81 4A BA DE
 90 13 6A C7 95 2F 43 7F 6B 38 94 95 1D 75 6D BE
 D1 B8 23 CC 23 20 C9 FE 3B 68 DB 86 DB 38 31 F9
 18 DB D5 8C F9 EF 28 60 74 E3 2F AD 8C F4 4B 25
 C6 01 A0 29 24 FF 57 8B BB 99 CE 8B D3 BB 64 E5
 7F CB FA 82 B4 2A 50 5B BE 50 C4 F9 D9 7E 9F 28
 BD 57 2A E7 D2 F8 08 63 08 57 60 48 D7 91 ED 4B
 6A 19 4F F6 0F 93 56 14 F0 33 F5 E6 D4 B5 43 86
 4B 25 94 9C 7A D5 82 66 14 72 A8 B5 1E 9A 31 02
 70 7A C5 49 7D 46 D9 5F F3 05 89 D0 84 B6 17 FD
 B7 D6 9D E2 0A F6 1A FA CF B2 EE 20 6B E9 C7 84
 35 4F BD 0A C8 A3 14 6C 95 1F FF 19 7E 14 73 80
* End 3671158884 1670159618