* LTspice Encrypted File
* 
* This encrypted file has been supplied by a 3rd
* party vendor that does not wish to publicize
* the technology used to implement this library.
* 
* Permission is granted to use this file for
* simulations but not to reverse engineer its
* contents.
* 
* Begin:
 39 F2 DE 7B E2 86 84 E5 28 34 7B E1 62 AA 37 57
 2E 3B D7 1A 9F 73 C6 63 84 0D 6D 3A DA 8B DE ED
 FD 4F E4 F5 A4 80 7F B6 7E C4 7D 18 EE 1D FD 60
 E1 CA 97 B4 87 34 B9 5A A6 3A 05 03 47 9E DD 9C
 70 51 71 3C 53 CC 13 70 37 87 2C 3A 26 01 20 6B
 DC EC 7E 28 CB 32 DA F0 DB D0 48 34 CD 94 54 D8
 4E 9D A9 7B B2 99 C1 31 C8 68 75 B8 57 A2 9E 0B
 8D D1 EB E3 60 52 EF 64 0A C1 C6 75 AC 6B EE EF
 AE 78 4A 39 87 B5 87 8F D5 A7 A8 30 2C A6 57 09
 40 6D 03 12 0E A0 49 2B 77 C8 02 19 B4 BA C1 1E
 41 76 56 6B 3E 62 38 60 A5 7E 3E B8 25 42 9A 2B
 73 5C B2 F2 70 88 A4 94 DF AE 59 C2 E7 62 CD 0C
 1C 8D 49 78 28 F7 B7 A0 35 02 E8 23 98 34 04 30
 1B AA 41 FD CB F8 E8 79 F3 E1 F9 2F A2 7C 49 5D
 65 39 4C 96 AB BB 95 C1 9A A0 F8 23 88 24 85 88
 62 76 8B 6B 5E 25 3E 1D D4 7F 4C 07 C0 8C CD 81
 1C 61 B3 1E 36 7B 97 3E 27 6A 55 C1 F6 47 3A 75
 C8 9A B8 1A F1 8A 40 40 85 34 A8 6A AB A8 FD 73
 74 77 8A C6 EE 02 DD 7B 63 1F B8 04 E7 3D 23 CF
 08 3A 40 48 9F AB 27 10 0D D2 D1 CC D9 59 7C F1
 A6 A1 FB 20 98 E0 3C 0B 65 42 A4 F6 A1 89 B2 86
 E2 25 84 B6 04 59 5D C5 2A BF 07 D8 88 46 2C 84
 37 7B C2 13 C1 2B 7A C1 6B AE 45 56 30 EA A2 1D
 70 4F BA 6B D6 E7 75 51 B0 61 0C 3C E9 E2 3C EE
 0B BA EE 7D AA 21 F0 59 1D B9 C6 89 8A 40 50 78
 EB D5 1A B3 6D 13 D7 7F 9E 5A 9F E5 2A 1E 51 21
 CD 27 1C 24 03 81 72 2C D9 F8 D1 BF 6C B4 97 20
 B7 0F 25 BD BB 9F DC C0 CF A9 02 45 54 39 0B 46
 A7 E4 C0 D3 BD 1C 6B D5 09 98 8D 01 47 C0 64 9C
 C4 66 C9 A5 D9 44 8B FA 4A B8 C6 D9 5C A1 9D 06
 82 F0 AE D3 59 3F F5 BE 57 BF 9A 68 C9 B5 09 A2
 94 77 B0 78 A9 80 55 69 F4 67 14 4C 37 CB F8 22
 77 56 A3 7F 2E B7 18 0D ED B5 72 F6 8F A3 55 9E
 5A 19 B7 D9 BC 3E 51 C6 76 10 EF 08 78 8C 40 CE
 0C 0F F2 ED 81 7B 05 99 C3 01 B4 39 F6 AE F9 64
 DA A3 96 F8 10 C0 C1 B4 CB 44 2A F7 8D 1D 36 E6
 98 27 F0 A3 73 8F 82 37 95 F8 49 47 FE DE 05 F8
 6C E1 E6 0C D0 F2 B2 93 B7 EB 66 79 B3 D3 F1 25
 20 31 3F CA 01 AD AE 39 8D 4D 35 45 1A 48 A8 F6
 A6 01 2E B2 18 68 74 86 1A 01 71 5E 21 39 2E 4D
 AC EF 1E FD 45 C8 68 1A CD 8E 17 E9 46 B8 E6 89
 92 82 23 1F 82 AA 39 E7 1F CD 46 87 A4 04 42 90
 E8 8A 9C B0 CA 60 1C D8 24 B4 97 BD 2F 9D 6A 0F
 D7 C7 E1 B2 FB 85 95 48 CC 69 3F F8 A6 8D 6D 2F
 0E 12 80 58 F6 19 A6 71 5F 69 1B E2 0F 1B 81 9A
 93 CC 5F 91 ED 55 41 5B D3 6D 5B B6 F5 E8 64 E9
 B3 5C 60 E0 0F 95 A1 8F D3 85 E8 FD 1A 2A 5D 80
 23 E2 35 E2 E9 10 1B E9 8F D9 6D 1C 3D BC 86 5B
 1D 77 06 4F A4 AE DA 83 A4 38 60 2C 5B C8 F2 75
 83 2A B1 4E 01 3B 23 78 4B 5D 23 60 12 A3 B5 96
 AE F6 76 9B 32 90 D1 85 8A 5E 9E 8D 58 E3 9F 69
 3A 52 18 69 BD 6E F3 DE 49 BC BA A6 5A 60 48 9B
 71 B6 B2 3D 9E 82 BC AC F7 8A E2 27 FA C0 17 5A
 13 3E 98 2E 99 E4 3C CA 1A E8 DD 5D 79 E4 ED AF
 BE B2 DD 6D 1B 63 74 7E 5E 32 E1 08 EF 57 78 6D
 5B 6A 81 29 87 67 CE 75 80 4B 14 84 EA 7D BD 52
 82 85 12 5A B1 09 9D CD DB 23 59 8A 01 71 95 79
 31 00 5D E6 FB 52 D0 BF CF 58 CC 9D BF 48 FD 83
 D9 B7 13 4F 84 23 96 50 62 EC C4 7F 2C 03 B7 DF
 55 1C CC F0 D0 A0 12 20 82 96 06 04 B3 36 D8 45
 46 4E 56 57 D4 05 38 5A 19 14 AF 10 37 81 AF BF
 82 71 CF 55 93 78 9D 82 79 BF FD F1 63 08 72 2F
 2F 7F 7E 40 2A 45 3C 19 21 5D 03 92 51 AD FE 48
 B5 5F D8 C0 B0 D6 B6 2A 96 CD 46 D1 84 40 35 74
 79 B6 6D 5C A3 8F CB 41 DF EA AE 52 3C 3D 7C 8A
 60 93 3E AD F1 59 05 BF D1 E5 15 67 EF 77 64 50
 88 F1 DC AA 2F 93 FD 9C A7 8C D6 42 92 5E F5 84
 9B A0 60 62 1C 18 5E E2 41 1A 81 D6 DE 92 F0 3D
 4E 6C E7 70 8E 96 00 EE 4E 98 60 C2 E8 F4 74 EF
 00 BC C2 96 58 78 64 C1 A2 8D 21 05 2B F0 89 A2
 8E 7F A6 92 91 A3 E6 D2 A7 F0 EB DD 3A BC 10 2D
 13 D6 40 BD A1 9B 47 33 34 18 FF C4 30 FF 95 54
 DB A7 20 28 3F C3 64 B0 85 F7 26 96 BE 66 A2 F2
 1D 76 38 E6 C0 61 9F 2B 7C A7 B9 DC DD FE A8 A7
 9C C6 59 6B 3B E9 14 D3 69 12 42 12 AB EA 5E BF
 90 DF 47 3B CF CC D1 E4 74 1B 7A 7C EA BB A3 06
 25 9B E4 3D 09 D6 68 EF B1 99 D3 93 86 3C CB 2F
 7B 39 18 7A 6C DF C7 BE 16 CB 49 81 8C DF 39 10
 85 7A 04 34 4F 46 E9 DE E3 DB 5C 50 05 1B 81 83
 E4 AA 7E 2B 7B 35 FA 2A 0F 08 A6 74 06 AF 0A 16
 FA 17 67 40 BB BE 60 A8 ED 10 15 83 1E 55 57 07
 DE 28 4A 28 2C CE F9 77 D4 7B 96 07 17 11 89 17
 DC C8 1F 37 83 D8 3F 14 45 B7 2B EE 2E 46 41 66
 ED 52 37 83 71 C9 7B C2 7B 6C F3 32 FC 18 0D 47
 6A 51 84 0F 9B AF 9B A2 B4 04 34 37 EF 62 E3 BE
 E6 29 E2 8A C3 65 D8 AF 02 20 DE 98 19 2A 72 65
 AF BE 60 55 6C E6 D0 72 6E E8 A5 84 DD 82 32 17
 96 18 BC CC D8 1B B9 9F 1C 22 A0 AA 62 D0 89 91
 7D 5F 34 73 A9 28 65 18 21 40 AB C5 B7 C2 71 7B
 F9 90 78 5D B9 16 20 76 24 D2 83 40 FC EA 46 83
 CB F3 77 70 F9 8C 26 6A 47 6A D1 6E 6E DC 3D 83
 7F FC F1 63 E0 B1 B0 48 26 A7 9A 1E 11 DD 8A 7C
 DB DC 94 28 C3 63 3C DE 89 96 53 D3 C8 FF 05 9D
 37 82 DA F6 A3 6E 16 5C C9 FD 17 C0 0B 4F A1 81
 C8 F6 E1 0D 78 D8 4F 8B 78 70 4A F5 FE 7A 73 89
 64 61 20 06 CF 5A 20 75 7A 90 E9 80 61 26 8B 1D
 B9 6F 8D 43 DD 3D A5 AD 02 2E E3 48 E6 C1 8A 20
 8A BA 4B DA 7C 54 3D 91 2A 59 D0 7D 7D DB 6D 26
 A9 E6 FE 63 4E 94 5C 7E 17 48 60 97 11 9D 73 DA
 5D E0 A5 A1 B0 C9 77 EC 94 2E 0A B8 4A 0D 64 FD
 49 A4 B1 C4 B0 75 CB 96 8F 21 85 24 D5 1C 07 AF
 1C 53 DF 36 D4 E6 9E 98 94 92 1F 9A AC B5 FF 2B
 E6 3B AE 05 4A EC AA BF 69 47 6D 69 D0 A4 95 4F
 0A 32 47 16 5E D0 3D E4 F1 24 E5 83 70 ED 4B 21
 C4 87 D5 D6 DD E5 04 F9 00 15 DF 14 81 22 77 29
 3D 53 A1 2B 2F C1 78 49 DB 29 00 03 F9 81 FE C8
 2F 68 03 23 66 9E 04 C3 B7 4D DA C8 D4 8C DF 52
 4D 42 8D FF 1A 7E 5F 71 89 6B 3F FD 2F A8 24 8C
 1C 9F 8A 6D 92 34 10 76 27 C6 96 9A 47 29 0D A2
 C1 99 01 5A 9D 30 09 A1 6C 8E 65 79 98 77 F9 79
 63 F8 28 4B 85 71 1E 8E CB DB B8 A3 4F 97 A5 92
 BA EC 73 5E 43 59 CC B7 3E 56 AD 8C AB 04 7E 40
 3C 06 1C 83 18 1B 25 55 83 93 86 66 8B 7D 2A 19
 38 14 81 83 8C F4 2B E4 C4 9F 73 69 84 49 98 0B
 17 71 AC B0 B3 3C A8 93 56 3B 74 36 39 3E EF 62
 9E 41 30 55 AD 9C ED 00 39 3E DE 07 43 DD 79 79
 A8 1C 9F 34 A8 34 A4 B5 34 8F 49 12 0A D8 04 B8
 72 3B D5 37 F4 6C C4 C6 66 4B 13 76 FD 3D 40 E5
 3B 0D 37 18 70 87 8A B9 9D 29 FB 27 A6 90 E3 E9
 3C 0E 54 B2 8F F3 7E CA 35 F1 BD F4 D8 52 C3 76
 60 81 42 28 6C 64 F7 81 A6 8A E0 6D 17 69 5D 3C
 04 64 0F 77 53 7B 65 8E 94 58 56 29 2A C1 6A A4
 AB 82 F2 10 BF 19 9E 4D 0B 5C 9A 0A BA 85 1C 17
 7F 0E 8B E6 34 8D 0E 2E C0 28 44 5D 86 C3 E9 24
 27 C5 FC C8 BF 38 DA 44 BD F6 AE 77 C7 F6 54 72
 9B F9 EB 77 32 33 B9 9B 83 F3 EC 81 FC 97 9A A1
 7F 3D 13 B0 7B 2A E2 77 02 49 57 1A C4 19 A3 A0
 61 A4 79 15 EC E2 A4 74 83 1B FA 52 13 DF 3F 76
 92 78 B6 2C 8A D8 92 D7 36 08 27 16 A7 F8 94 A4
 4E E3 70 B9 18 23 70 3A C9 DA EE 80 FB F4 A8 42
 95 AF 4E 3E 5C 4B C1 0C F3 77 BF 49 C6 77 CB 94
 E2 17 A6 08 D1 0B 50 2E B9 8B C4 90 36 A7 E7 03
 E0 0B 23 3B D3 9A EB 5D A6 34 C6 E7 02 B7 E2 87
 F6 80 03 0D EC 8F 4F 95 53 22 6F 4C F1 8A ED 88
 5A C9 23 E3 27 E1 35 09 0A 70 3E 33 23 38 EA B8
 D6 FB 3D 64 15 15 06 AE EC 0B 45 84 9E 9E 80 67
 7B 13 38 CD 68 1C 7A 70 C0 90 F0 8F 34 BE 19 9A
 44 90 03 FF 89 2F EA A7 B9 BC FE 0F 27 DB 8A 5F
 82 9A 44 D4 B7 E6 5E 64 49 A0 4D 84 1A 91 33 2E
 64 86 4D 3D 84 30 EE 20 30 7A 74 D9 3B 67 B3 A0
 E9 AB 0F 3F DA 09 A9 09 B7 7F 37 01 9C 46 12 2D
 34 A9 21 F2 26 5E 84 0F 38 A7 1E 9C 2B 0A FD 88
 17 5D 0A 96 8F F7 4F 48 6D D9 24 53 25 4F 33 57
 2D ED 19 5F D4 60 68 FA 86 E2 24 44 27 33 CE 82
 A9 90 94 20 3D 65 1E 08 F9 2F 50 E8 46 A8 22 3C
 EC 9D DB 5A 4A C2 33 4A 5F 49 3F 12 71 8B E3 22
 13 16 22 13 81 D8 6E E6 B0 0F CD C6 4D 0C 6E E2
 E8 AD DD 90 76 07 E5 68 88 C6 AF 91 8C EA 62 70
 1F CF F6 8A 8E CF 5F A6 37 BD A4 D8 72 F6 85 3F
 31 AE 9C 05 9E B6 37 10 20 1E 5E 99 96 8F B0 7A
 49 78 18 C1 00 E7 5C 6B 07 89 54 50 A1 6B B9 8E
 02 92 5E 65 7F AB 17 8A B5 48 F5 13 B8 1D 1F 1C
 F1 4E 93 1E 51 09 95 87 D8 52 71 B3 B9 E4 B9 31
 68 26 9F D3 5B CD 72 37 17 9F 23 C6 F1 AB DF 1B
 A5 9C 84 A5 D5 C4 BA CB 03 03 DF 2C FC C7 6F FD
 91 A6 14 D1 83 9D DF 1A 1E 8B 90 22 A3 4C 17 BB
 E2 1F 42 76 7C EA A7 64 BA F5 47 AE 05 F3 38 BD
 EE 98 49 1F BB 37 F1 AC 3D AA CC 94 7B 58 A9 30
 E1 BD 38 B8 F1 3F 9A 21 F4 CD 39 59 BD BD 38 DA
 7D EF 68 31 F5 F6 E1 4C 2D 02 88 83 CF 43 31 E2
 F6 60 37 E8 6A 42 7A 0D A6 E8 F1 A5 39 C4 02 00
 FD FC A1 E6 FB 73 E3 EE 30 FB 95 A9 98 CA 64 E9
 4A CD 6C C7 CA 74 78 DC B5 08 55 F3 29 DF 9C 76
 D0 76 49 08 6C A4 46 57 57 C5 74 3C 92 DB DA 37
 57 90 7E A3 47 E4 ED 1D 13 99 A9 DB 87 7D 0D 98
 46 0C 3F 73 29 2A 97 73 96 CE DD 62 B3 ED AC CD
 8A 25 9A 2E 30 32 95 33 A3 F1 EE BE FF 4A 1F DB
 45 2E 00 43 BD A4 EF FF 0E 30 E5 85 24 E4 36 FC
 56 44 D1 71 8A B5 45 B7 8B 74 65 CA A2 04 66 EF
 10 C4 A7 5C 5B 6F 30 C5 39 AD 19 8B 81 59 A8 4E
 B9 12 6C 99 3F C4 01 CE 66 73 B2 77 31 A1 59 C2
 C8 96 82 F3 AB C6 57 8F 20 87 B4 9E 71 E8 CB 92
 55 D4 BD 62 9B B9 E5 22 9F 88 B6 4B 55 22 2A 49
 4B 26 58 E1 B1 9A 37 C3 56 F0 B7 42 69 74 00 F5
 47 52 EA 6C DB 0A B9 DA DA AF 92 E2 1E 9C 5C 86
 31 F4 D0 D2 03 E3 AA 8E 39 8B 7D 89 D2 60 07 C1
 E4 8B AE E4 75 33 86 8F 7E 1F AE C4 91 78 00 DB
 C0 2B BD 34 F9 93 4B 57 4C 37 A2 4D 0F 9D C8 DA
 6A 69 04 A4 C5 E4 35 3C 91 36 E1 FF C5 27 DA 9B
 32 E6 C3 07 75 47 97 0F 86 14 7E 06 EF 50 32 55
 D1 21 D4 98 84 C1 0C A6 1F 19 2E 9B 62 29 8A E5
 09 1B F6 9B D0 B8 62 46 54 8B 3A 4A DD BE 47 0B
 B8 F1 8B 58 2D 98 D1 46 93 F6 84 27 6B 84 BC 2A
 29 6B 36 67 9A FF C8 6C D3 4C 98 C7 9B A5 E9 A2
 92 E0 2D BA 33 DA 88 9B 9A D3 BE 19 B6 BA 66 53
 B3 E9 76 6D 27 FB 05 85 F8 53 08 BD BB 00 FD C3
 4D DB 70 BE 78 0D DC A5 04 04 B6 2A 25 80 50 22
 89 9E 5C A9 E8 B9 DB DB EB BF 9A 24 4C DD 84 FB
 B6 3A DE 32 0A A0 F7 53 6A 88 7E 88 ED 4F 7C 01
 9B 09 63 16 23 08 C8 C5 4A 2F 51 34 EE 0B F2 C0
 59 BD 0F 18 91 22 41 05 6E B5 D8 19 8F 3A 03 05
 BA 4E 6C 6A 12 69 79 44 0F C0 C6 2A BF 20 6B 88
 87 44 9B 6B E8 11 73 31 E4 80 62 0A 67 DD 59 AC
 0B 1C 9F 12 A5 05 4E 41 0B 45 B6 AB FD 1E 1F 00
 97 F4 4E 3B 90 F6 F6 C3 F3 7B 04 4C F1 C1 97 D5
 B4 18 0D 23 30 5E E6 16 E2 6A 2C EA 59 A0 A3 D3
 3C 5D 7F 4B A2 61 9D A7 D0 39 7E DD D0 AD A6 CE
 38 7F 79 66 86 13 46 B5 C4 7F A6 72 4C 64 18 E6
 FA F0 F2 A2 0F 35 32 A4 56 65 03 5C 58 29 58 08
 E1 E5 58 59 37 B0 88 20 E6 57 11 46 91 88 1C 73
 83 7F D6 F6 87 39 BC 5F C6 9E 2A 0C A8 2A B0 47
 0C A3 96 4D 44 80 7C DE 71 7A 8A FB B6 D6 DE A6
 C6 BD D4 14 EB D3 BD 5F 08 7F 42 3D DB 5C F2 B3
 18 1D 74 53 B1 AA DB CC 6C 90 FA 46 69 44 5E C0
 C4 AA 98 5C 10 DF 29 4F 5F 19 36 DB 35 05 A0 06
 D7 95 AD 63 B4 52 79 EA B4 4A 57 76 86 6C CC 62
 33 84 14 3C 5F 3C D7 D3 C4 8C BD 77 CD 5D 83 65
 80 D6 A4 44 C2 57 43 72 76 4B 20 DB 4E 14 CD 2C
 C9 8E 21 3B 0F 29 A1 0E 5B 52 3A 55 B0 D5 31 F6
 6C 47 14 CF 47 36 D1 DB 66 F0 DA 16 4A DC E9 1F
 68 1A 93 4B 02 A9 94 BB EA 90 42 95 16 9D 2C BB
 96 9E C2 D5 35 C8 DB DC 70 4E CC C8 72 DD AA 30
 DE 64 A2 BB 49 40 8D B3 35 36 42 E9 C9 7D D5 DB
 AB DF 1A 90 EE 90 91 31 DE 44 36 1A F1 2C 0A 4A
 7D 2A 40 12 CA 09 1A 81 9E 23 DC 69 E9 1F 71 BE
 D4 E9 D9 0D F4 69 41 F9 44 7F C8 5F 26 49 7C 14
 18 F9 67 2D 9C 80 C4 D5 DB F6 5D C4 35 90 30 A9
 7D 82 1E 63 65 E4 EB 98 FB 26 60 36 97 5E 1E 84
 0C 26 FB 8E DC 60 BD 9E E2 2D 11 9A 9F 90 DF D9
 35 E8 72 F6 EC 65 BA E6 47 F9 7D B7 72 18 77 AD
 0A F9 21 71 27 B5 0F 6D CA A6 8F 74 29 24 4E F8
 F5 48 4A 54 A3 A7 A0 10 6B B3 02 87 A7 A9 06 D1
 DD D9 7D 69 64 84 28 7B 13 C1 1A 2C 2C FD 57 13
 E6 0E 12 96 3E 65 51 A5 43 43 97 79 C9 D8 8A C8
 CE B9 C7 0D FD 72 AA E7 CF C6 9F B6 47 03 13 BD
 5D C1 5C 1D 09 92 DC B2 0D 67 24 BD 05 C3 F0 85
 1B DB BB AB 5F CF 38 7F 41 8F A9 0A AF C3 21 6A
 A0 F3 7A 89 4D 45 15 DF 9C C3 C2 BB E0 43 FC 0C
 75 A4 3C 26 F0 23 AE 4D F1 DE 6C DA 07 77 0E 2C
 38 59 29 4D CA 63 33 DE 99 2E 57 4B 57 52 66 16
 6F 6F 0D 14 56 36 FB A3 A7 83 B8 0B 40 DD 6E 17
 C0 60 92 1F DB AB 1E E8 D2 3E 6B 62 0F 54 22 71
 F6 76 61 C9 55 F5 BF A1 CF 48 86 6D 71 D0 E1 D2
 25 A0 BD 28 E8 66 16 33 C5 C9 51 06 E4 41 2C 61
 D7 8B BA 33 2E CF CB 66 8F E8 FC 4D 3B 31 4C BE
 15 B2 6C FB E8 06 46 6B 10 69 01 F2 B9 14 D3 AC
 0F 8D 03 23 32 E0 6B 52 40 E6 00 72 4B 43 75 05
 A9 E6 DD 60 62 6D AD 90 DB 96 35 FD E3 EB 95 14
 F4 38 7E 25 37 E8 87 B6 77 69 B3 AD 46 C1 F0 7A
 89 D7 B1 34 DE 06 AC A5 D5 FA 7B 9C 54 E0 07 A7
 81 4B 6A 3C 44 48 ED D1 B5 23 47 86 09 BA 90 D1
 E6 1F 9E 2F F1 6C 32 51 AF CB F2 DC 4F 9F 33 FF
 6F F6 42 6B 1A BF B4 AE D8 78 B5 9F 32 43 F7 D7
 07 2B 33 66 67 F4 2A 11 EA C4 9E 6E 80 D4 49 A8
 F2 C3 E0 51 D9 65 C5 B6 9A C9 89 D0 3B 4F F7 7A
 FA 36 DC 04 F0 FB FA E4 F3 55 AB 1D F5 43 D3 86
 3E 9C 99 76 60 8F 2E 31 EC C9 53 19 D1 C8 16 C9
 B0 31 76 19 DE EE 77 A8 2E 89 CA 8C DC 86 84 6A
 E7 18 48 23 8D 34 50 EE 63 F0 F4 F8 E1 F1 56 10
 65 3D 1B 34 B8 EC 0A 2C 5A B8 8D 86 10 7B 4B A1
 AF 6A 81 27 F1 1E 47 9F 41 37 0A 2A 98 83 E9 F4
 AB A7 76 DA D9 A9 C3 7B 7B 46 3D 53 55 15 A3 89
 E7 23 F8 7B 6E C2 64 29 57 64 3C 6F 9E 7E 94 4F
 34 A8 20 CB E7 BA 3D E4 D9 55 4F DB 2F DA 12 FE
 0B 23 BD 2B 9B 39 5D 39 99 6C DE FB 44 67 D3 15
 65 EE 6A 68 2A CA 25 4E AB 52 21 42 42 A1 69 C1
 42 FF 52 42 26 36 CC 32 31 AE D7 5E 37 9C 25 E0
 18 6B 8A BC 61 DC E9 A0 1D 35 27 35 94 5F 35 33
 7C 24 4F EE EA E9 3A C9 20 C5 AF 46 B4 10 1B CC
 51 BF D5 02 88 F5 26 46 44 D3 0B 99 70 C8 76 9D
 63 6E 02 28 C3 00 DA 8F 93 7A 8F 3A B2 EC 1D 26
 48 61 21 DF 08 2A 1B 16 A5 C8 21 C1 62 0C 50 97
 61 13 D0 C2 7F 2D DB B4 C9 DC EC 19 C7 D0 F7 21
 45 CD B3 D9 00 1E FE 37 C2 F0 C3 44 CC 84 66 69
 D3 46 2C DD 0D C7 A0 F2 D5 CC 7F 91 FA C4 5B A0
 80 66 A8 B8 DF E5 0C 84 5B 5D FA 53 2D DB C5 A2
 32 71 E4 2C 10 9C 2F 2E AE C0 68 51 BE 46 7B 2F
 C3 DD E3 2B 35 73 79 25 3C 40 0A EC E4 12 A0 9D
 66 69 A0 81 13 D1 50 9A 53 3E B8 65 84 3D 68 CF
 DF AF 36 3A 5F 3D A1 01 5E 47 F8 FB B2 F0 3C 29
 04 E4 39 60 7C DD 82 16 75 F8 A9 3C 85 1F 98 C5
 91 B1 0A 0E 6D 3A 7A 29 1E B8 75 9D F9 CA 6B 47
 1A 84 7B BC C6 D0 DD 78 85 14 FA 67 69 27 88 59
 BE BB 9B 73 74 92 83 2B 5F 16 53 BE 52 EB F2 D2
 6A 98 97 95 03 5E AC 40 4D 09 00 0B 3A 9B 7E 96
 D9 E4 8B CF 30 F5 40 CD AE 41 1F D1 8B 95 B4 97
 A6 CC 5B 88 F0 8E C7 30 D9 49 82 25 A2 4B B9 72
 BC 14 73 70 E4 B8 3C 00 AE 61 5F 84 01 05 7A 91
 CD 74 EE 6D 19 C0 E3 73 4D 83 31 F9 6F 3F C3 05
 65 1F CE 22 27 7A A5 36 D3 D8 D0 16 6E 92 8B F8
 A0 75 EA BE 70 92 6D 41 AA CF 0A 5D 96 0E EA 6B
 FE 18 2D A5 39 92 1A 27 E6 92 85 72 F1 17 85 83
 F8 84 99 2B E0 7A CE 57 56 11 11 94 3A CF 39 37
 EF 4E E0 A9 36 5C FE 09 A2 7A CA BD 4E 5A 7A CE
 5A DB CD A8 DD B1 E2 12 A8 19 D5 1E F8 0A 69 D3
 C2 60 4B FC DC D8 11 F6 6C 8E 1E C6 4F 38 56 ED
 08 05 4E BF D6 07 82 E0 13 81 0C F4 EB 9A 6E 3A
 5D 1F AE 36 7D 68 A5 66 04 10 50 AF 7F F3 39 95
 9D 32 90 05 F5 72 88 49 F9 30 FB E1 90 26 3F 77
 48 D4 F8 55 F7 FA 68 81 98 1B 92 00 46 FA FD EB
 B0 50 6B D3 46 93 8D BD A2 55 A3 59 C6 67 37 AA
 AC F8 C9 8C 1D 1F 2C B1 69 A1 A0 48 6C 32 15 27
 18 0B 02 E0 E3 D1 C4 9D 6C D2 A0 74 A8 AA 33 D8
 E9 9A 20 90 9E 93 AE 11 5C 6E 9C 5E 1D A6 4E 31
 91 C8 34 BC 77 50 D7 18 10 86 D1 09 0D 22 6C 52
 1A 8E C4 5D 03 A4 82 0E E3 B1 36 DC 0D B3 3B 3B
 CA 03 F2 9A 46 CC 2B 4B 34 83 80 13 22 B5 83 79
 A1 75 C7 E4 A8 34 19 50 DD BA 5A A7 60 F2 FE 2F
 F4 D1 25 76 30 AA 79 99 02 C9 92 3A 90 B3 E5 59
 7C 74 4A 94 29 4C E5 2D B1 0E 8A 4D D8 03 12 51
 E4 05 3D 1F 63 85 24 FC D4 68 72 A8 0F A2 71 6A
 68 8D DB 4E C1 95 0D 28 D0 CF 6C 5D CA 02 5B 09
 D5 13 A7 95 B2 64 16 BC 8D 4A 1C 10 68 C3 78 A8
 0F E6 40 21 4E 34 F8 42 18 68 28 DB 6D BA 40 88
 BD 67 E0 88 30 97 51 0E FE A8 AC BB C0 2C C0 8F
 ED 20 CD DB 33 C5 7A E3 50 D2 C7 5A 3A A4 C1 68
 CD 13 58 2B FF 2C 53 AF CF AC 18 8D 6C 3C B2 C9
 D1 98 CD 16 F7 4E A4 91 16 E1 80 2A FB A2 E6 C9
 6D 90 34 67 2E 23 11 60 98 9C 8D 39 1B 90 B0 B6
 DB 18 88 9B 11 1C 7D 64 71 45 5A BB 69 6D BD 71
 08 1B 0D 6F 55 77 BA 3B 4F 4E 41 03 71 ED 9E 36
 09 5F EF A4 E6 1A 4F 79 81 D1 9A 28 AA 96 43 8B
 C2 FE 66 88 41 BC 22 A3 44 68 E6 C3 90 8F E2 C3
 4B 17 4E 74 DE 0F 2C 47 F4 DB A4 27 0C AA E2 7F
 0C 26 6A 47 2A BA 4A 71 30 41 59 F4 D0 E1 90 1F
 9B 00 FB 91 E3 1A 2B D9 63 2D 35 F8 D3 70 E6 11
 4F 52 05 84 9F 6F 4F 22 0A A4 D2 E7 16 5B 12 1F
 C2 07 A1 32 08 87 35 12 66 AD C0 C7 CF 2D B6 F8
 8C 59 69 91 D4 58 02 37 B1 79 66 A4 0F EA C6 58
 A8 AC CE B7 D9 52 00 B5 78 1B 9C 0B 4D 90 D3 C0
 27 FE 6B 57 62 8B 7F 87 2B 8C 97 7A 9D 09 8C 20
 D4 A4 0C 1F E9 CC AD 2A B9 F5 31 8A 1B E3 83 A0
 73 2A 69 71 41 36 E0 D2 FD DC 34 AA 67 B4 12 B8
 37 4C CA 92 50 09 C3 C0 A3 4C 02 F3 59 99 48 3A
 8A 6E 81 52 E8 38 71 00 EF 5B 5F 90 A4 81 32 E4
 4E AA 64 BB 95 6F B5 63 BA 58 F8 4A A0 22 89 BF
 B5 44 32 93 8D 3B 22 64 F4 B9 39 CA FF 5E 58 32
 74 83 87 EF 5D 2D 1B 7A 0B 19 50 0B DD F4 48 9E
 2A B4 2D DB E3 9F 32 17 FF 2E 65 44 93 F5 B9 9E
 97 D1 88 D9 0B 0E BE B5 52 6D 11 A6 B4 1A B1 92
 6F 11 80 03 44 09 C9 8C D0 C4 F9 EB 8B 9B CD 23
 77 8A 99 4E 45 CF 61 B3 F3 D3 79 C9 CC D9 9B CB
 FF 47 05 91 2C 6B 88 3A 0F BA 25 6B 41 3A 0A C1
 39 93 F2 97 66 36 F0 99 E3 38 56 27 44 66 9D 4F
 67 76 7B DC 35 8E 3B 0F F2 62 BB 31 74 EA D3 27
 E1 B2 56 CA 48 AD BA 50 99 AE 7D 24 BA 89 85 5E
 95 EE 41 21 B6 D0 91 AE 38 87 41 BE 5C 19 73 51
 C4 90 C7 98 4A 87 5B B2 81 E0 6F 9A 76 3D AB 9F
 19 66 E8 F1 10 BA 78 63 C6 DD 38 BA A6 6F 00 90
 E0 50 CE 9A 6C 42 5E 96 6B CC D9 D1 F8 C8 F5 EA
 64 6A 21 BB EC AF EB D1 4F A2 D6 FD 95 9D C8 4C
 31 7E B3 F5 B0 0C F9 15 2B A2 55 8A 81 30 4A B7
 44 62 E9 9C 4A EC EF 4F A7 4E A8 32 A3 49 D1 87
 A8 60 30 23 07 70 D2 01 B1 81 60 BC D7 F4 DD C2
 E9 E6 39 02 8B F3 E3 3E F6 B4 54 D5 5A D9 9F 30
 9D 50 24 82 59 52 19 2D 43 3F 2A B9 D2 C9 EF E6
 CE 0A B7 5E B0 86 70 78 DB EE 19 A8 DC 94 52 EC
 9C 32 F7 7C A5 82 F3 2F F6 A7 0A B1 DC 38 2C ED
 78 F7 CF 9A 30 DF CC 79 3E BD 70 89 32 EF 54 6D
 A5 70 EF 00 35 BB A9 46 25 1B FC 6A 71 BA 10 63
 9A 01 E7 04 12 24 3E 73 41 AA 4A FE D8 45 61 AC
 E7 B5 C9 95 FE 9A 1B DE D8 EB DD BB 95 E8 0F 08
 07 9D 6E 63 2D 5D 8E 2E 83 2B 44 EA 74 6B 22 E8
 CB 89 D2 C2 55 BE AD 97 17 4C 2E B0 51 8D D4 A8
 B0 11 BF 1C 94 3D D3 DC 56 2C 82 34 0E 1F 88 E2
 40 10 9B B8 E1 08 3E ED 57 EC 6C B2 40 50 99 D5
 50 28 BB 08 FD B6 DF E4 A9 67 80 6C B8 49 B2 61
 31 9E F8 40 5B 15 77 82 DE E4 E8 68 36 A2 61 E4
 21 91 0E E5 55 4D 25 CA 20 7A B0 13 45 C1 73 A9
 C4 7D 05 85 4E 11 C9 EC F8 0A DC BB B0 06 30 7E
 E7 84 B4 3C 01 94 6E 05 3D C9 75 E8 95 86 5C 9B
 23 FA 11 43 85 79 3A 63 8B AF 01 CE B6 CC B1 5D
 8E AC B2 90 81 0E 41 09 17 1C 52 6D BB C3 50 F2
 F2 3E 74 DB DF 27 8C 59 98 D0 82 BB 12 52 A8 56
 A0 09 A3 1A 6A F8 8C 96 14 74 EE CD 85 B8 C9 0A
 10 8B 47 71 94 A7 A0 E3 6A A7 7D B5 AD AF 2B 1C
 13 58 0A 19 60 D7 9E 8A CD 5A 2B 6D 4A BE 99 0E
 32 2C 90 1E 32 8D 73 BD E9 34 46 76 E8 1D 30 35
 2D C7 96 CA 26 33 3B F5 D5 04 A3 F5 30 07 52 01
 DB 73 B5 49 88 C9 10 96 8B 41 57 F3 98 83 1D 11
 F7 3F D8 FC D7 87 5F 70 A1 29 4A B1 7E 72 57 C1
 67 E4 3F D9 20 7E 7B 20 FF 4E D0 9D 5C AA 87 68
 1F 83 CE F9 F9 D3 51 79 90 94 D8 7A 6B 5F 67 73
 D2 B5 44 10 93 40 06 AA A6 8B 0F B3 65 F7 F8 3C
 03 CA 7E E4 7B 32 CA A2 CA 36 C7 A8 5F 11 80 B5
 DF E3 1A EA DF 4E 71 CD 2F 4D 83 B4 C8 DC 33 DA
 D8 68 E2 5B CA 5C F9 F0 05 49 32 6D 59 3D 08 64
 5D 26 D1 87 8C 7A 9C 90 78 D0 03 CE FA 4D 71 2F
 CE A6 70 21 59 B4 07 51 C1 41 B7 89 1C 61 42 8F
 F6 55 CD 35 B4 68 85 C4 55 21 35 EE 3C 4C 9F 8C
 60 A2 0B AC 64 92 A0 08 B5 6A 8A 4D AB 92 12 51
 80 24 02 23 33 F4 6F 7A 29 9A FD 76 22 FE 77 68
* End 2429869063 328524074