* LTspice Encrypted File
* 
* This encrypted file has been supplied by a 3rd
* party vendor that does not wish to publicize
* the technology used to implement this library.
* 
* Permission is granted to use this file for
* simulations but not to reverse engineer its
* contents.
* 
* Begin:
 3D 09 75 6F D9 A0 FA A3 4B 5E 50 E1 5C 84 12 10
 A3 81 EE 90 1F 0D E2 C8 56 63 96 84 21 DF 60 90
 33 9B 0E C5 51 01 73 8C 30 3C 22 F7 2C D7 8D 22
 BC EC 33 C7 1D 4C 36 A9 CF 5A A7 9E 7B A9 20 91
 A4 3D F7 50 A1 7A 56 D5 27 23 A2 BA 46 67 0A 04
 ED A8 CB 7E 78 9A C7 C5 D7 9D 1E 2B 43 EA 39 8F
 47 31 6A FA F8 84 0F 55 13 B8 2F 0D 8B 62 2B 93
 55 61 C2 8A E2 9C E8 00 B2 3B 77 02 0B DA 15 2D
 10 9B C7 E5 AB 91 B0 C3 05 F8 02 BD E5 F1 70 B3
 53 BA 77 AE A8 BB 18 54 7B B7 7F 38 B0 C1 09 BE
 BD D7 7C 1A 1E 50 FA 5B 78 1C 21 C8 B2 EE DA 06
 B6 B3 1D 40 1B A2 48 52 D9 38 D1 D5 B7 C6 01 46
 A2 11 22 BC 2A 96 2B 41 37 A2 5D BA C4 24 6D B8
 BE 28 31 A3 B7 48 8B 7E B0 29 EB B7 A9 CB 7B FD
 24 75 BC B2 BA F1 C0 23 D5 13 A4 87 2A 60 80 7F
 1C BF A5 57 06 6B 8D FA 8E B8 29 DF D9 96 03 AC
 AF EB EF 69 48 B3 0D A1 8F 75 38 A7 8E C4 DB C4
 CC A4 DE CB 24 9F 2C 71 3C F8 26 CD CE 07 BD 75
 12 B9 C8 E4 B1 A0 67 C6 4E F6 65 25 62 EE 6E FC
 28 B3 4F 40 AD 2F B7 64 5E 91 9A 07 06 DE 16 90
 D5 87 73 A3 03 3F E5 E8 CF C3 99 D8 F8 50 0F B6
 F6 72 0F B3 6A 3E 58 F5 26 94 8D D8 E8 63 BC F0
 17 AA 2C 2C E8 4B 2B 2C FB 11 6A F6 30 C8 D1 A3
 B2 93 62 E7 7D A4 F4 EE A7 AD AB C6 93 43 51 5B
 90 E4 1B 17 BB 1E A8 42 D9 56 61 C4 D6 D3 3A 86
 07 A7 E7 49 E5 1A 88 D6 9D F7 F7 D4 0B 49 41 E9
 4B E4 93 95 EF 91 5C A9 D2 C4 A6 3B 49 30 D3 4F
 9D EE 5D 94 74 3A 8D 25 5D 52 12 EA A4 54 E5 CB
 F6 42 71 69 14 D7 D9 1A 1F 75 9B 57 4A 95 03 61
 A2 60 72 FF 14 C1 47 A0 66 5B 65 A9 7B F6 63 33
 BD 53 25 DB D4 94 20 8B D2 CF 05 74 19 A8 12 72
 28 E2 B8 68 87 3C F4 6E DF 7A 78 40 46 70 65 F0
 85 D2 54 07 12 CD 7D BF 65 8A CF FD 08 C8 A1 FD
 88 25 CF 1F 4D B6 84 90 5E A9 7D 89 CA C4 FE C4
 93 C0 28 56 6E 09 72 76 FE 89 30 98 E8 4A B9 08
 19 EE 6E CB D0 8D A3 AA 34 E0 97 83 A4 9F 72 79
 9A BA 16 7B D6 FF 66 8E BA B6 EA E9 73 B1 22 A4
 03 62 44 40 E6 F5 54 C1 B2 EB 1C D7 83 13 AE A3
 FA 99 AD C2 CB 4C 27 E1 1A D4 D3 92 54 59 F5 B5
 B4 4A FC 01 A1 39 88 C4 34 7B AD 12 3D 86 57 66
 4A 3D 9F 92 B9 41 F2 03 C6 4D 19 FA 5E 5E 34 8A
 90 8B E1 F6 ED 70 9F 30 25 9A 45 6A 4D E3 A9 65
 01 C6 13 A5 38 27 68 C6 32 18 15 1C F5 37 29 16
 BD FF 24 00 BE 71 87 16 6A 09 FD 59 8B 7B 9C FF
 3B 01 D7 1C 74 EB 03 66 85 4C B4 3F 86 F0 8E B4
 24 86 DD CB 77 92 91 18 D7 85 4B 8E B5 6A 49 AB
 F4 E2 15 96 72 E5 7A 6F 3C A1 7B 77 11 47 56 B2
 23 A0 60 A9 2C DD 75 FF 84 AA 82 A0 31 F8 7C 06
 38 83 74 0A 60 14 09 E1 DC FA ED 30 3B 95 E0 C6
 2C C9 0B D6 DE 80 EC E1 9A B1 4B AD D3 2E 34 6F
 04 AD E0 47 F9 E5 11 F0 8D 7E 88 1B 62 AE B0 4C
 01 5F 1A 99 E3 0B FC E6 6B AF 36 DA BF F3 C1 DE
 2A E9 E2 20 0B B2 4D 3A 41 FC 37 40 3B BF 50 9A
 3F 43 BB F4 11 BB 43 19 97 08 04 39 ED D4 6D 4D
 8D 70 EE 2F 36 BC 97 0D 5B 75 36 0B 84 EE DF BE
 6B E7 44 F6 29 BE E6 CD 98 B3 14 08 7D 27 A9 0C
 6A 6A 0C E7 2A 6E 25 3C 66 75 90 18 0D 55 8A 6E
 F9 A9 81 91 31 19 65 A5 38 CF 84 C8 A2 86 BE 36
 79 21 8A 84 1A 68 9D 55 6D 25 2B 5F 30 A8 C3 98
 A5 66 5C 4F 3C DB 73 5B BB 3B 2C B9 DB 33 6A 77
 1C EC 85 99 60 3B F7 8E 43 96 CE D5 3A 2B 5C DD
 D8 8A 7C E7 A8 EF 5E 18 86 8D 92 96 D4 3C 2A F3
 0C 0A C9 B2 AA C6 35 D9 F3 38 8C FA 6B 07 F3 07
 B6 EF 52 4E 8E DC B5 59 8D F7 94 A5 92 45 9A 37
 25 A4 E6 BE 10 60 F0 97 9E 20 CF CA AC E2 8F 7A
 B0 AB 94 79 03 0A 21 B1 51 9B 5E EA 7C F9 04 B0
 52 95 29 CC 95 88 05 75 DC D6 93 27 46 71 AF 25
 76 EC 54 65 94 A9 94 2D 34 5B 45 C2 A0 EB FB BB
 C5 8B 48 AB 8F 3B 59 0F AB 24 2C 7D 20 FA BC 05
 32 C4 4D 69 92 BF F1 AC C9 88 1D A5 51 3C B9 F0
 9E 04 0F FB C8 C9 D5 66 EF 63 DA 4F B4 DD BC 93
 5F 60 F3 48 02 8E 85 5C 8B 94 43 DF 78 B7 C9 0B
 99 61 59 55 7E 2F 97 F1 E8 6B 62 6D 1C 5D 15 6D
 40 23 CF BD 8C B4 99 1C B7 EE 88 D6 9A 32 3F 22
 39 AC DB 1E 65 7E 3E A2 4A AE D0 52 38 5D 08 CF
 36 76 05 FE 43 B8 90 95 EB 94 45 1B 5B 85 A8 D5
 54 D9 9E 12 F3 F4 48 AC 10 17 DF 5D C0 48 94 9E
 6D 09 23 40 7B F5 06 DC F0 A4 AB C8 43 13 13 77
 68 61 06 AF F8 10 06 F9 46 40 3A 84 94 C2 45 9C
 80 57 8B 69 8A A3 08 BF A0 DA EF 24 E7 CC 62 23
 DA E5 34 F2 B4 CE 7A 78 B9 9C 78 69 2C DE 07 3B
 6B 6D 1A 83 18 DE DE 70 7C 4F B0 4A C4 A9 D9 13
 68 74 A6 FE 4F A6 6A A3 61 99 15 26 6D 4B 8C 23
 DB F7 ED D6 50 FD 01 75 EC F1 B2 F8 41 0E F8 8A
 B8 2B 33 3E 7E E4 C8 39 93 04 80 33 40 9F 8B 99
 7D E3 1B D5 3B A8 6A 11 C2 14 94 94 A9 D6 03 C9
 7A 14 FD 77 A9 C3 19 DB 2B 6B 84 BE B1 F6 F7 FD
 F1 1D 9E 89 9E F8 29 8D 57 23 DB 81 9C DF A2 FE
 01 47 F5 46 35 11 DD 89 36 B7 CD 9C 67 6B FA 2B
 3D 59 C1 BA C0 A8 67 74 30 22 5D A4 29 8B B3 F6
 67 DB 01 D8 BB EE 17 4D 95 78 9C E9 22 93 C3 B6
 6C 5D AB 7F B2 92 F7 05 CA 71 4B D8 09 D6 B4 BF
 20 2A 05 3E 34 9B 5D 82 69 C1 FF 28 AC 12 2A 6E
 2B 42 C4 ED D4 01 23 6A DB A0 72 32 B9 94 17 37
 8B E5 A4 C1 4A C3 17 80 5D 0C A6 6F 64 5D 68 1B
 A6 EC 44 28 B9 D4 CA 9E 30 D7 A5 CC 74 30 B9 3F
 A1 4B 3D 8C 2D 41 C6 1C 7E 96 D8 E2 E9 23 05 CC
 B1 D8 60 78 DC BE EC A3 DD B3 B9 79 E3 25 1E EE
 39 B5 C3 A6 13 1A CA 95 69 67 B7 B0 A5 52 AC 15
 33 E6 79 90 F0 39 2D 3F 06 9D 98 E7 4B 30 82 56
 DE 2C AF 15 C6 C5 07 05 58 03 D1 9B 38 A7 7C B8
 26 B5 6C DC 06 87 5A A2 AC AB BB 54 2E 94 C4 7D
 41 44 D4 35 CD E6 99 ED 27 03 72 27 AF C6 0A FC
 A3 37 D3 12 9E D4 5D E1 7A 87 13 3E D4 34 24 99
 A2 81 6B 91 43 70 10 25 6E D1 3D C3 86 03 5E FF
 76 D0 C1 21 CF 3A EA DF 81 85 0F 11 C6 7C D8 45
 ED A9 0D FC 35 B0 AB 16 23 C2 61 5A 97 E7 D4 E7
 C8 A9 9B 8B 5B EE 07 DA F9 59 A4 5F 53 E0 C2 1E
 D1 19 23 3F 4C 06 1A 59 13 2B 42 88 75 A6 FB 89
 ED 22 71 6E E3 F3 1F 30 51 74 17 0F 7B 99 06 6B
 43 88 D9 B7 F0 20 47 C7 A9 9D 51 75 73 B5 0C 5B
 70 8E 30 65 D9 46 AD 45 2F 0F D9 A4 71 32 87 1D
 02 66 8C B5 14 C5 94 C0 73 9E 4F 0F 76 C3 D5 52
 48 1A 9E C4 92 CB 1B F1 DA 3A 1C 0C 1E 8E C7 32
 D0 0B 54 B8 FF 95 C7 94 5C 05 B5 4C 6E A5 E7 E9
 54 02 B3 BA 9C AB 2C 11 04 44 18 5F CD 18 B7 84
 7F 41 87 C4 ED 42 59 97 74 49 79 59 48 79 33 99
 C3 0C 86 85 FC 13 29 29 44 83 F9 79 BD 6C A7 3E
 A5 96 81 DB CB 28 EA A6 E2 84 1C 3C 48 4A A7 99
 40 3B DE 62 F9 7F 97 69 C6 49 EA D0 CE 3A D2 A6
 10 6C EC BC 08 0F 8D E6 D3 94 A9 72 B8 77 92 2F
 A5 9A BC 88 2D 47 9E 18 37 99 A9 A9 54 F5 98 EC
 9E 07 7C BD C7 2E C5 51 71 BF 36 CF B8 B0 46 1C
 10 3D 10 20 64 E0 E2 D2 90 E3 0C 8E EF D4 56 BC
 87 1F D0 95 46 61 72 5A 08 5C 9C 54 34 81 94 CA
 B4 99 0B EF 1A 6E 62 29 77 B2 FE 6C 63 40 62 6D
 37 6E 59 82 0E CA 5D 56 59 78 EA E4 FE 40 8C 7B
 7F 2E C2 E6 4F C9 F8 5E CA 9D 0E 85 F0 93 A5 15
 BD EE 45 2B 39 67 95 EC 6F 18 68 1D 7B C7 75 18
 D2 79 2F 2E FF 9F 32 E4 AA C1 4E AF C1 1B 7D D8
 69 FA 58 4F C6 33 BB 07 9C 93 63 24 23 95 37 6B
 A9 B6 EF 75 AB 8A E2 A5 C3 F7 5C E8 3B 7E BB 54
 C0 64 06 6B FB 56 5F 9D A3 BE AE 94 B9 38 ED BC
 F4 87 68 3A 7E 22 63 25 C2 29 8F CF 2F 03 0C F0
 8D AF 5D EE 5C B1 6D 10 10 0F 89 C0 F7 6A AD CB
 6E 46 B9 55 96 A5 0A 89 A6 88 6C D7 67 67 FE B6
 6D C7 5D 74 F4 79 08 0D 16 DA C0 85 8A 5E F6 BD
 7E D3 4D 14 6A A7 56 D9 B8 5B C8 D5 43 DF F1 1E
 A7 6F 16 64 34 BA 78 7D B0 89 75 5E 6E 5F 38 FC
 59 00 35 B4 D4 F3 1E 81 08 57 B7 5F 55 4A F0 9D
 69 71 C6 37 A1 88 AE 13 5C 0F 11 C5 AF 2F 63 71
 79 CC 12 07 77 14 3D 55 12 EB FC 43 F7 E9 2F 53
 2B 0D 64 01 BB B7 FA F8 A4 34 EF BE D3 47 4B 40
 88 99 D4 C7 F5 DA C1 68 8E 80 33 E5 0C 0A D6 D1
 06 9A 6A B5 C2 3F C9 80 B1 C8 63 B4 88 9B FC 5E
 64 32 7A 7B C7 D9 51 1E 90 4E 48 2C 0D 5E EB D8
 BD A9 ED 23 18 E7 06 84 61 DC AE 1F AA 6B DC D9
 CF 98 6C 25 A5 5D 18 F9 A5 95 BC E6 CF A2 F3 74
 66 26 73 F2 5C E9 B8 3E 53 B9 E6 F5 ED 77 0D 7F
 FC 8C 84 01 3D 7B 83 09 67 7A D2 94 66 D2 D3 15
 22 4E E5 D7 54 31 17 78 62 23 28 2B 72 53 40 C8
 33 63 3F 26 1C A5 48 FD 0B 72 3F 87 3E 71 EB 5F
 39 64 93 7D 96 E2 39 11 C3 DD B1 F4 9A 2B 2C D2
 9B 5B 91 3C 89 9F 76 2A 1E B8 7E F3 5E 4A 3C E5
 7C CD 2E 48 A2 01 47 55 3F 6E 0C 41 10 E7 CD 64
 CE 46 71 28 7A 6D 20 81 F1 8F 6D 25 49 F9 A6 4F
 94 FA 10 9D 57 A9 81 57 4E 5C B7 0D 8C A4 9D CE
 8A A2 EA 81 AE 65 3A B8 1E 8C 09 1A 13 85 05 2D
 70 9B DE 45 D3 93 59 CF DA C2 7D 33 09 A2 8B 4F
 40 D0 0B 1D 70 A4 A3 F0 06 EE B1 3A 15 88 EF BD
 56 8C EF A3 0C 8E 15 1A C0 1E 50 25 1A 19 BC 3C
 76 76 3E 2F 19 26 67 22 AA 60 F5 66 BD D5 27 0A
 5A 6C 9E 83 92 26 CA C3 AA 18 D6 7C 02 26 A8 63
 1B 7A 3A B1 61 45 9B 74 45 98 00 B8 E5 71 5D 1C
 B6 03 8E 02 B9 40 43 66 A8 2B BB 15 8A BD B0 B2
 68 5B 6E 10 5A A0 9B 75 DB 4A 02 A9 64 9A 38 34
 57 1A 6C 4D 12 50 4A 82 B8 48 0A D3 60 86 70 5D
 40 A9 30 54 74 F4 89 3D 9F 54 01 3C 44 6E BB BA
 7E E5 0D 07 AF C2 D2 21 B1 41 F1 E6 D5 18 8A 76
 1B F1 B6 AF 2A E2 5B 00 6D A2 4F AF 01 E0 B2 A6
 06 23 AE 74 FE B7 47 DA E8 6D 80 DC 8A 3A 98 F3
 18 1F 83 6A 0B EF F4 E5 F9 C2 7C 9C 95 7D 8F BB
 E6 57 28 A5 51 35 7A EC D2 37 CA 5A 5D E6 B7 8F
 5A B4 DB EE 76 E6 3B E9 BA 51 18 C9 C3 38 A5 7B
 20 1A FD 2A DD CC 5B A0 E3 03 A3 41 75 18 20 90
 C2 36 B7 A3 74 06 82 19 33 07 7A F8 B0 A1 2B D1
 3F D8 39 A0 1B 9A BC E9 A9 BF 34 9E CD 0F 1C CD
 B9 C2 AC 8B CF 96 EF E0 53 DE 15 B0 17 4E 57 35
 42 29 E1 CE 99 B8 38 0A 32 86 98 19 10 A0 50 7A
 00 E6 C8 39 57 A6 D6 4B FC A7 34 81 4A 0C E7 58
 4C 42 CF 2E 53 1F 37 48 9C 22 88 27 1D 68 57 96
 CE 98 FA 91 E8 DC E6 C5 D7 91 52 B9 E1 5A 3F 54
 09 F8 C7 91 6D A5 8B 22 C7 57 3D 0B AA B2 5B 47
 41 7F B3 6F B8 EF 9C 43 7D 4D E0 A5 95 D8 7D 78
 E9 8F C1 B4 4E 39 83 B0 94 92 9A 41 7E 61 20 9C
 84 ED 0C 80 41 03 DA 1D FB 7C D1 7B 47 14 F5 25
 52 3C FE 61 8D B5 1E 0A A8 ED 71 DB D3 4A 4E 8D
 2C 9A 2D 86 50 D8 15 10 81 7E 61 48 A8 51 F6 86
 1D F6 2C 0C D9 1C 56 25 5D 3A 35 C8 78 11 BC 2A
 83 AA AC C2 33 C2 2B 92 AE 95 7A B6 05 7F C7 C5
 CB 99 07 D8 65 36 AF 03 28 CE C8 3F 87 77 61 A6
 07 FA 8A 4E 15 DA FE 53 5E A6 A9 C7 B6 D1 68 AE
 F5 77 73 78 64 17 29 2D 1F 2B 0F 0C 82 24 D5 6A
 83 16 42 A0 48 16 7E 28 7B 01 D8 F3 92 46 24 CF
 89 E8 0F 8D 22 C2 89 22 8F C7 90 5E E4 CD 70 28
 0A 8B A4 29 C1 B3 9B 9B E9 8D 6F C2 3B F7 38 77
 DD AA 02 4A A2 1A 27 5C F2 72 C2 B9 B1 69 09 4F
 F3 51 03 EB 8B 4F 00 1C 9F B7 9D 1E 6D 80 12 95
 BC 0C 02 3F 67 CB DC 9B 2F A2 74 14 B7 9D F9 28
 8B 57 95 82 53 58 AD EF B5 8A BB F6 DF B0 46 80
 95 56 04 37 02 63 D7 F1 96 F0 94 8B 17 44 07 C6
 86 BE 51 BC F3 F6 FC 35 78 EF C5 37 E0 53 0B EC
 C8 D0 BE 17 60 44 5B 23 03 B9 D4 71 9E EA 4E 00
 55 53 F8 DB 90 4F 83 42 B1 D0 DF 78 05 9E 30 F1
 D4 3F 8D 8F E5 AC DE 4B 52 2C BE 93 D9 E6 AF A7
 51 01 D2 DB 1E 0C 9D E5 37 76 F4 9A 80 CF AB B7
 F7 98 A9 F3 E6 B7 15 17 6F 9B 80 C8 DE D5 C3 A5
 6C 10 77 A4 6E 0E 4D 07 14 75 74 DF F2 2C CA 1D
 23 38 71 A8 34 79 F2 67 32 32 A1 0E A1 69 C0 D2
 30 60 F0 5A 88 B5 3D 4A 7A CB 64 77 AC 7D 29 81
 1A 49 B3 52 86 5E 67 52 4E 67 29 52 BF C5 E3 89
 39 62 61 D1 BE D0 7F 32 A4 D8 8D D7 74 D6 1C 95
 E1 82 84 77 57 63 DA 39 B5 83 0B 02 A9 29 74 26
 3B 00 D1 6E E5 46 04 83 52 D5 5B 5B 36 E3 57 06
 E7 69 2C 67 14 6D 86 E4 3B 94 BA E3 66 33 AD 50
 03 33 C3 18 E3 E6 AA 17 73 E0 B0 02 EF A3 E8 9D
 CE F5 72 4E 8A D0 A1 13 12 C8 3A C7 76 79 D8 B1
 A9 B1 BC C1 65 40 D6 17 47 D8 EC B6 0B F1 B5 75
 0D 3F E9 1A 8E 70 D8 AA FB EA DF E6 55 36 39 4A
 31 F9 A7 D0 B0 9F 65 99 8A D9 93 A1 8F 0C 97 FB
 60 13 D0 B5 3E F3 B0 2A 20 D1 DF 53 E6 69 6E 59
 33 32 1A 70 32 5D 36 31 39 B5 A7 0D B6 7C 12 D2
 5B E9 DA 6D E6 82 75 81 20 98 B5 22 1F 5C 33 48
 6F 89 8A 89 FC 95 5C B8 EA 7D 9B 3E 45 05 96 10
 B8 44 A9 7C F0 4F 9F 93 B0 DA F9 9A 53 85 94 09
 6E 59 57 9D 46 7D 21 E3 58 DD 4B 3D 44 B1 0A 36
 F6 28 D2 BC 42 12 0D A9 22 E2 E7 F9 65 E6 97 B8
 39 2F A0 A6 43 38 B0 42 C8 24 B7 43 06 83 4C D7
 B8 4C 04 98 FD 4F 51 7E C5 D6 7B F7 DA 2D 6D EB
 BA 03 ED CD 5F C1 EF 0A 61 D7 DC F8 A7 BE 0A D8
 0D F2 6A 26 62 DB C1 FC 60 30 E6 41 4F 07 22 83
 D2 98 3B 53 48 7E 72 C6 CE 12 46 2C AA 13 3E 00
 21 EE 41 81 EE 75 96 40 56 F2 47 6C 88 F3 FB 56
 53 FC FD FE 8A CE EE E0 85 EB 4B C7 CD CC D6 2A
 26 5D A3 D6 ED 90 7F 90 38 14 DA 31 32 4F 35 02
 34 FE 85 D0 0F AC 17 40 6B 82 18 C8 A0 3F 80 CE
 32 36 9B D4 F9 98 3D D7 59 D3 9B 03 F8 FD D7 F2
 9E 65 97 BF A8 E6 01 D7 98 88 8A 9B 1E 4B 24 F6
 46 98 C8 61 45 63 6A B8 CC 21 D5 26 96 3E 1B 7A
 5F 5F 69 50 05 C5 48 07 50 47 D0 27 63 58 5E BC
 AA D0 FE 71 86 52 F8 F5 1E 32 1A CF D9 A1 A9 C2
 A7 12 0E 10 12 AF 12 7D 10 09 6F 68 89 33 74 3D
 BD F3 29 8E 69 8B A8 86 E0 93 8C 47 98 9D AE FA
 64 F7 AE 12 D9 DE A9 AC 09 44 3C 50 2B 01 76 26
 8D F9 9C 57 09 45 D7 8E 59 5C 61 84 BC 25 BA 8A
 19 7E 8C 97 64 C4 63 FF 5B FC 37 22 81 DC D2 39
 D4 DD 05 68 32 56 3C E9 2E E5 19 96 F9 96 10 E0
 96 8B 1C D2 A3 2F 16 B1 0F C8 05 21 82 7F 6B EF
 E5 32 68 5B B8 AB 63 CE 15 67 51 EA 6C FC A2 72
 60 8E 71 34 B5 25 48 63 27 EB 98 56 BE 67 64 52
 7C D7 97 AC 79 4B 08 7D 4F 40 EA C7 B2 76 4A 2E
 23 78 38 E4 CE A4 72 9F AE 71 9E E9 86 17 60 B8
 BF 01 58 1A 11 2B 1F 45 A2 20 57 0F B9 29 CC 4D
 0C C9 FA D5 21 33 8C D6 6A 40 54 01 A6 69 F6 74
 61 39 8C 0F E4 EC EE F1 CD C8 24 8A 19 79 DD 26
 41 C3 69 12 AA 7D AF 31 F0 68 9C B9 B2 B6 55 88
 5B 88 21 90 41 14 DD 49 B4 DC AA E2 34 4A CE CA
 C4 B1 82 04 BC C7 5A 0D 53 AD 60 7F CD C7 ED 50
 47 08 D8 28 EF FE CC 05 21 EC 1F 83 DD 57 B1 B3
 17 D9 13 1E FA AE 83 5F BA AF 07 E8 3B 1B B6 A0
 3D 9C D3 BC 20 2A C9 B7 32 D9 71 16 F7 8C EC 77
 98 7F 51 56 A9 F2 3E 5C C2 2D BE 90 EA 5F 1C 38
 1E E4 F7 0A EA 86 82 34 AB 7A 29 B3 49 3F 67 60
 37 A5 9B B6 2B 05 73 17 DB 23 16 30 D1 2B 0D 93
 8A 0C 27 6B C3 5F 91 6E 4D 53 29 2F 8B 13 9D 21
 14 BB 3A 3C 46 ED A4 07 B6 0F 8C D2 5F 3E 80 E0
 DE 1B 5F 0C 9A EC E2 0F 1C 3F 29 B6 C6 92 4F BE
 3F CB 32 F7 43 E1 27 4B 68 91 EA 4B C1 00 6F 7E
 A1 41 6B A5 9A E9 10 8E 77 FE EE A8 BF 24 9D 64
 D7 20 B4 3F B2 EB BA A1 1B B5 9C ED 47 B5 57 B6
 2D 14 2E 78 72 FC 8D 53 2A 7E F6 72 7D 4E F1 EC
 07 09 7B 3A 93 89 33 66 C7 FA A2 1B 4A 47 AF BC
 10 F4 50 75 C9 45 C7 A5 A1 71 C2 55 BA 85 D6 78
 AD 6C 19 34 69 12 EF 31 4A 24 33 3B 13 D3 66 9F
 18 8C 72 E3 6A AA 74 AD 65 A3 51 C7 05 74 32 B1
 F8 61 3D EF AA 86 4B 84 51 5E 10 14 F7 5B C0 CA
 AA B7 73 A2 10 02 B5 36 15 C4 82 22 A4 3D BD 1D
 29 14 2D 13 B4 1E AD 1E 24 33 95 E5 2C 55 70 0B
 75 AC 78 B2 78 0B 25 88 AA 9C ED 31 6C D5 D1 C1
 43 CC DE 6D 4E A8 0A 70 4A 33 89 1D 1A C9 39 2D
 7B A6 8B 13 E3 F0 DD 5B A2 CC 80 44 AF C4 0F 29
 54 7F AE F6 2E 1E B0 FA 0A 89 10 05 29 AD 2F 33
 83 74 32 D6 83 EE 42 EA 87 F5 FC F3 1B 90 05 54
 DF DC 96 37 E1 8E 0B D1 BC 6C 2D 3C 7B F2 D1 95
 E1 93 C6 69 EA 36 3F F4 8F 34 26 FA D0 EF CD E2
 21 AE B9 C5 19 DA 3A 52 C0 F2 47 41 1C D2 C7 C6
 3B C8 89 5A 9F 49 08 AF A3 76 D1 14 DF 8D 19 B8
 87 63 7E 1E 80 B2 AA A8 E3 C4 4F A7 06 99 B7 72
 9D 57 2F 63 F2 09 76 55 6F 61 F4 D4 3F 2D 3A AD
 F4 D5 FA D8 20 3F B4 E9 F3 AF 6B F8 9A FF DD CC
 DE 5B 05 65 3F 5A CB 52 F2 40 14 3D 95 BF CB 81
 9B 08 4C 63 30 E1 91 EF AD 53 87 11 14 66 AB EA
 77 25 BE A3 45 5E E3 F3 E2 FC 9E 23 02 2B DD BC
 46 C1 FE 56 2F 7E 16 B3 6A DB FA 83 FD 40 5B DD
 C0 51 D3 E8 1E 1F 0F 05 6D 6F 2D EF 1F 7F E6 D3
 5B C6 07 6B 0D EA 58 55 2B 46 88 F4 61 BA FF 1C
 AD CF 63 7E A3 8E 11 23 60 F6 39 F0 D0 21 55 89
 50 94 F8 08 3F 13 93 FD 29 F8 27 75 44 91 60 90
 57 1E 83 63 EC 52 4D 21 16 10 D2 5D E0 09 D8 D5
 E1 DF 42 8C B3 30 6E BE 5A 57 91 11 8C E1 32 B6
 7C D9 38 74 35 78 40 63 D0 E7 D4 1B B7 C4 D3 69
 D7 C7 39 1D 23 52 64 47 BF 9F 17 65 7F 9B 53 CF
 3C 19 1F 85 80 6F BE BC 6B 14 81 5B 0F E6 76 25
 D2 B9 B5 52 1B 27 AC 21 70 7E 00 8B 91 FE 67 71
 38 68 F9 FA 00 09 71 13 DE 0D DD F1 D5 F1 AC 11
 37 CD 34 C0 AD 87 D8 B9 71 31 DC 90 1B AC 96 8A
 92 20 6E 97 C7 0A 09 A6 72 54 D8 65 1E 33 EB 71
 F7 01 A0 93 33 80 B8 3A 5E 38 28 DD ED 98 A0 0A
 D1 F6 19 13 AD 6E A8 CA 23 C2 1A 16 E9 AF EA 24
 4D 4D 9D 01 DD 16 1E AA A8 11 F0 E9 C8 63 3C 5A
 F5 0A 87 44 FA 77 EB 36 11 4D F1 BD 99 63 D8 78
 88 2E 61 E1 D8 F5 B1 C2 AE 49 DB BF 53 59 B2 66
 FC 2E 11 86 1F 76 05 55 BA 5F 5D 7D 77 D5 BE A6
 BF 10 5A 5E AD C8 5F 55 8C 8A 49 5E 0D 07 5B F8
 28 8F DC 18 D1 63 45 B2 77 E2 20 50 2C 1A 4C 01
 25 E2 5D 39 E2 A5 AA 4E 48 42 23 4A 63 49 56 02
 26 A8 51 28 8B 18 86 E0 6D BE 71 FD 33 45 64 B3
 44 4B D7 F4 B3 E7 4B 53 79 E7 37 BF 6C B5 3D 4D
 4B C1 CC A7 E6 C4 4C 02 6F 77 D3 A6 8F E1 E5 12
 A9 C7 38 89 E5 35 7A EF E4 78 57 A7 7B 24 6E AC
 BF 73 62 F8 62 B4 FE CD 5F B1 44 36 67 C3 69 C9
 83 79 58 29 62 9F A1 7C 06 35 2E 9D 85 DF A3 DA
 DB 06 AD A8 2F 10 54 3F 4F 36 C2 DE 25 51 0A 24
 7B 19 97 D8 2E D9 9A D1 32 64 90 68 4B 7F EF 13
 76 1D CC 86 CD 88 2F AE 65 5A D2 D0 B4 4D A7 69
 63 84 E6 21 DA 32 CB A7 44 E0 48 36 B3 29 D3 6A
 31 C7 01 35 70 B2 E5 A7 0D 3E 33 6E 5E A6 8D CC
 E1 33 DF FD AA C9 BC 19 23 B2 DB 63 32 00 DA CA
 7F EB A4 BC 77 BB A9 63 55 AF D2 06 F9 56 F9 5D
 BD 36 17 CE 21 DE 0B DD 3D B8 4A 1B C8 F0 FB F2
 D8 D3 43 A4 D0 2A 7B 24 65 73 5D 5C A7 47 0A B0
 75 B9 08 F9 DE 57 FB 72 73 C4 CF 45 EF 35 E8 33
 47 9D 51 60 F7 08 DB E8 2A 44 62 3B 11 E7 07 EA
 14 4B A5 8F C4 8A EE A6 F2 17 A3 A7 7F 22 42 42
 58 DD AC 80 26 05 C4 36 0C 9A 9D 2B 82 92 09 62
 9E E4 77 3A FB 51 19 F9 20 3A 9C 57 F6 1E F8 05
 ED 1F C6 E5 28 0F FB 62 05 0B 89 5D 88 3A 20 42
 B2 9F FF C5 96 5B C8 26 45 BD DC F7 EA 21 71 83
 56 EB 09 B0 EF CE 27 8D 71 10 19 FF 83 4D F3 26
 8B FF C2 E7 58 DB FF 90 B6 69 AD 4E 24 D5 3D F1
 58 87 BF A4 AA 22 0D A1 59 E9 56 F4 2B 48 D1 34
 A9 48 0B 5E 2C A3 40 76 FA 3A 76 20 13 BA BF D1
 55 6F 0D 48 61 F9 1C 41 A9 4A 15 55 38 87 E2 96
 01 AE 62 34 1F F6 B9 51 5F 7A 61 EC 31 75 67 DC
 DE 26 C0 6C 40 AA DE E5 63 59 AA 0A DB B3 AA E3
 A2 E2 3E D3 D6 17 7D BA 4A CD F4 9A 26 AC 4B B4
 77 A2 2F F1 7C 99 DB 5E 5B 96 EB F1 7C E0 EA 34
 E6 45 8B 56 4B 95 5C A1 F6 06 51 7E 3E FD 07 A8
 9C 55 86 D9 93 16 6F 3E E6 02 85 59 B8 9B 95 D6
 11 2B 2A 76 8A 8A 46 B0 55 16 F7 46 BD 01 25 C8
 18 D5 5C 80 C0 34 1C 9F 58 B3 0C 58 B6 4F C5 35
 D6 2A 79 54 C8 CB 66 FC A0 86 C2 64 91 81 5A AC
 E1 F0 A3 97 89 01 E0 A7 E4 7C 8F 94 9F A6 42 5B
 74 82 AB 3A 86 53 67 83 EC F8 F2 D0 9D 9E 1F 20
 0E 32 8D B9 EE 91 23 3B 99 3F E4 EB 90 0E 9E F5
 6D 7E 50 4A 2F 7D 78 92 3A 61 D4 88 B4 A6 B2 C5
 AF A0 49 6D AD 27 01 3D 57 EF 34 B8 E4 00 5F 75
 1F 50 A2 CE C4 CB 82 86 2E 9B 57 77 C8 3A A2 AF
 69 3C D4 3A 1A 72 2B 8A 51 9E 0F 7D 87 30 A9 21
 BB D2 48 5F 1B 55 00 B0 50 CA 42 EC 11 14 BA 5E
 F3 F5 D6 6E 99 C9 E8 22 47 FD EC 97 B3 EE 02 42
 F7 AA 75 72 62 5E 11 35 F1 8B FA CF 39 41 44 B9
 88 9E 73 1A 50 FE A7 27 75 5A 9A 9D CE 8F 9B 7E
 48 99 DD 56 BF AC 41 2E 87 01 6F EF B8 03 6C C9
 10 3D B4 75 7B 0C D8 2B DD 56 C9 7A 19 3B 6D 23
 AA 73 F5 A2 CF 97 A5 CC 57 50 E3 0C CC 2B 0C AD
 3D 74 5B A6 F3 BA 80 BB 77 3A 7E C9 45 86 D0 B3
 C4 E8 DA DF 10 71 96 37 84 88 FC F5 3F 85 50 4C
 8E 86 6C 38 5B 31 0E 4F C5 8E 5B 2C 9D 1E DC 8A
 5D D4 0D 4E 16 2D 14 07 EC 5B A1 39 F4 A8 D7 66
 A5 D4 75 2F AC 88 37 C1 E1 5C 57 3E 49 49 41 19
 32 22 C1 3C 60 BE B8 22 99 24 04 FA D5 47 51 80
 41 AD DB E0 8A CF 1E 2E AC 60 FE F4 31 B9 20 A5
 C0 62 72 E9 1C 0F 39 ED FB 6B 78 ED 90 70 04 50
 0A 2A 39 02 E6 89 60 C5 DE 5A 33 E1 66 54 A2 41
 20 36 DC 0A 63 AF E0 34 25 A1 91 5E 34 0E 4D 50
 3D EE 44 91 59 77 E2 14 7C 91 69 63 DC CA 21 46
 8C 5E 47 57 9B E3 18 81 50 C0 E7 D9 52 97 E4 B9
 45 BD 9C 7D 1F A9 24 59 13 2F DC F2 3F BB D3 6C
 55 F2 9D D3 35 46 6F 83 FF 6D 7E 4D D5 B4 DA F2
 50 3E A2 21 2E 4A BE 87 FD 8D 1F 6A CD BB BA 51
 76 58 2C A1 FB F5 6E 46 47 F3 B6 1B DE 27 08 A5
 6C 44 ED 14 10 A3 D8 02 2F 72 48 5E 7C 07 04 F1
 A9 D6 E9 20 22 72 92 89 02 68 AF 42 B0 AA 7A ED
 0B FD 4F 32 E2 E6 E3 BB 06 40 B5 36 12 77 9F 8D
 EA A8 A2 42 C5 24 27 FB 37 7C 82 3E 37 15 52 87
 2B 8D AC 6A 4C 5C F8 E2 1E 88 89 3F 3F 51 41 8E
 FE D6 09 5A 5B 68 0D 89 7D FE 59 19 A4 CE 04 3B
 D4 F4 73 14 96 10 97 80 6E D5 B1 B2 A2 21 E6 2F
 16 B3 89 C9 3B B6 26 8C 88 3A D2 9F 4E C7 5B DC
 C7 54 94 EF CC EE 4D E1 3D 03 18 3C 58 5D AF 62
 2E 20 E5 65 0E B4 CE 38 AE 5F 2E 36 90 D9 06 C0
 9A D4 0A B9 D3 16 75 40 B3 85 BA 0A 30 D6 8D 6E
 D3 61 C6 CC 5C 12 80 C8 EF D9 A9 5E FA F8 2B 10
 3A A3 94 45 C5 2C F9 CB 20 D0 2E AA 06 0F D6 F9
 8F 5E 03 0E 09 83 F6 13 6A 52 29 AF 80 F9 A7 29
 52 F5 49 00 9F D9 18 68 CD 9A 0E C8 A5 F2 B5 BF
 6B 59 C5 9E CB 23 06 70 AA 87 1E 1E CC 93 BF 8A
 92 99 A8 3F 27 2C FD 5D 4E 52 2B BE CB B4 03 09
 F2 2B 75 60 B1 18 DF 94 3D 65 97 0F 07 24 D8 98
 B1 E7 5C 38 53 67 D1 DD 17 84 66 0D CB 53 B1 69
 B1 35 DB 1F 5D 7B 69 EB F0 A1 BD 4D ED A3 36 19
 8A 74 8D 83 6E B5 B3 FF 00 0C D6 56 10 CF D0 A8
 4F 3F 51 D2 D4 FF 78 94 07 06 7F 04 B8 5D DF 28
 8C 14 74 79 AE 9E FA 71 C0 14 01 F3 42 91 05 08
 13 9E 3C B5 A3 2F BD F4 00 13 6D 1B 48 CD 77 BD
 AC 57 35 D4 AA 14 E9 36 6F E9 C8 A8 66 82 65 3D
 DC 40 76 AF 9F 57 02 6B 01 52 75 7D AA EC 77 97
 61 04 B1 9D 71 94 F3 B7 BA A0 59 37 04 14 82 37
 A1 A4 1B 2C 0D 26 D8 9F 04 E7 AF 8F FB 30 07 99
 47 9A 16 32 CC B8 23 E8 E8 8D 5D 4C 1A 46 30 B4
 0B 7B 1F 75 39 BE 8E C6 2C D9 66 C6 15 CA E7 72
 4C A8 90 AC 34 3A C9 B9 74 68 AD 90 90 44 E3 A3
 4F CA F9 74 69 29 80 0D C6 2E 9A 60 2B F9 F1 D3
 24 E7 6F 6F 49 24 67 5E 72 6C 7D 0F 94 7A 6A 5D
 E6 4E 18 03 22 DE EE 71 A8 16 7D C4 98 AC 06 B6
 3D C4 00 BE C4 09 BB 7A DE EB 80 97 F8 45 62 0F
 2B 7F D5 D1 A7 10 92 52 8F 84 2A 50 4E C8 6F E8
 E1 5E 06 D2 AA 0B 2B E1 85 BB C9 E8 D9 84 4C 06
 53 E2 DE DB BE 61 3E 7D BB DA D9 88 AF 07 C4 84
 64 A9 25 57 93 9D 46 A3 D2 39 9D E3 98 50 7D 61
 A6 EF 8F 4C 1C B8 A2 40 7B CF AF 45 80 F2 DE C4
 4D CE 0D 7A C1 34 7D FC 35 8C 65 B4 9E 6A CD 4E
 8A BB C8 7C 69 F0 5D 13 E7 62 98 30 7F 78 6B 6B
 8E AC 53 62 C2 0B A8 8E D7 F6 92 CF 47 AE E8 25
 E4 5C 73 3F D1 58 DA 55 B1 85 24 8B 53 A2 32 EC
 0C 2A 32 E5 ED 2B 32 C0 11 B4 EF 7C 2C 3C 79 A0
 4A 1A AC 48 A4 57 95 38 6F 5E B1 12 FC 87 10 E9
 1B 18 16 DD E4 7E FB 5B F5 90 27 5A EB 4A E7 45
 31 71 E9 25 A4 9E CF E7 20 3C B1 99 64 BF 90 C1
 E9 91 1F CE 2C BB B3 53 FC D8 C9 B5 AC 64 C4 4A
 6C 4E 7C 3B D6 10 04 23 B8 BB B3 CC 66 C8 22 ED
 BE 84 33 FA A3 A4 16 36 3E 7C 45 B8 60 54 B5 D3
 0D 97 C4 9D 84 41 96 D4 81 87 A0 BA 27 A6 08 72
 37 81 1A 43 AB 9C 47 E0 9E 4A 05 BB 8E A7 D6 47
 A2 B1 C3 9B 37 7C 38 29 92 65 12 D3 33 C5 A0 C2
 3A 15 B4 07 BE 40 3D 9A 5D 7E 1F 2D A1 C2 5E A7
 A2 44 51 A3 44 89 FA E7 33 A1 77 B7 D2 15 1C 9B
 2B DD A5 BF A0 B9 27 8F 1E B2 58 99 25 B5 1C BD
 20 86 6D A3 6E A6 2B 8A 99 20 F2 53 A4 80 C1 6B
 A7 08 F5 BF 04 66 37 3E D8 24 52 7C CA 49 C0 49
 15 DE DD AA 5A 98 3D 7A C2 AB 96 47 94 60 CD 94
 7D AB B1 4C 77 C7 C4 5E B8 03 CF 5E BC 59 7E AB
 73 8F 9E 90 FE E6 97 D4 56 E2 4F EF 45 76 91 AC
 E1 7C A2 AA 53 32 FB ED 58 6C F6 6E 45 5E 35 58
 2D C3 EA 3E 06 0D 78 77 F0 E3 34 9D A7 94 58 B1
 BB A3 81 FE 37 61 41 7D 38 C0 17 15 35 F1 03 FB
 63 00 F8 AD DF 7D F0 27 AC B0 C1 BB AA 94 90 C2
 F7 67 55 C9 FD 0D F7 BD A4 70 5B 3E 96 6C CD 04
 3A 4D CD A4 E0 0C 34 29 93 87 42 14 D9 C0 35 B7
 1F B8 9A CE 10 96 E4 86 01 4D 20 FC 08 36 0E C4
 8E F2 9D 5B 11 FB 34 00 25 DF 58 21 38 D0 66 1A
 B1 1D BB 2B 7F 40 7E FD B7 5C 9C A5 6D 13 63 7D
 73 C1 60 E2 B8 1A 24 FA 55 21 4E FB 16 A1 4D 34
 B3 CE 4D BE 40 73 9F FD FB 8F D4 E9 98 8C D2 0A
 5B FA FE B5 6D 1A 12 9B 80 9D 58 E7 A6 69 DE 88
 A6 EB 6B 69 2A 70 87 5E 9C 38 D9 8C 13 1E 70 E8
 31 C7 17 58 EA E4 E2 8E 97 F3 13 31 C9 D5 AE 1F
 62 9C C8 07 11 D1 40 5C 13 9E AC 40 0F 62 10 B1
 6D 83 FD C2 8E BA 4C 46 4F E0 CD 20 F7 91 47 E3
 52 8B 46 D6 90 53 2E 1C C9 ED D1 53 64 1A 14 99
 57 D7 10 71 68 E1 6A 6A 55 6A ED A9 71 AF 80 9D
 BC 10 CB DC 0E CF 62 E6 78 50 4C 64 3D 48 E2 AB
 BB 2F 13 C9 5E 96 00 BF 01 82 6F 6E 15 DB 29 AA
 D2 96 CC D4 4B B7 4C 4A 5F 22 EA 42 9E 0E 3E 74
 A2 E5 C1 02 B2 45 3D 92 AD 29 54 F5 2B E4 32 E3
 73 72 7B 8D 20 1E 0B 85 E1 04 F3 70 8B C8 75 A9
 37 5A 66 DC 19 DD 33 0F FB 18 54 97 01 C6 B6 D4
 91 96 E6 6A 12 C4 73 9D 77 32 46 E1 58 70 74 CE
 63 3A FE 67 39 3E C7 5E 6E BB 4E E9 33 D6 B7 3A
 8B EF A0 31 85 30 FF F7 6C 33 58 42 A5 6A 26 54
 CB F7 4C 6C E4 16 47 8B 47 4E 80 FD 8A 35 76 C2
 E5 7A 6E 80 5C 6E 8A 88 67 77 59 D8 55 3D 32 48
 A9 93 FA E5 AE 2C 38 95 1F 51 47 76 BA FA C3 73
 82 84 05 20 6E D4 BA D2 50 D9 7D 7C 53 C7 1C 6D
 AA 01 4F 7B 0C 92 79 2F 66 A6 DA 0C 3E 5A FB 96
 0D CA DC 41 BE A9 F9 B4 69 22 02 A9 0E 8F 9F 19
 BC 0C 46 B9 4A D6 5C 55 C5 D8 00 C1 F5 89 A4 F0
 4B CC 32 FC 45 BC 22 88 43 66 26 01 77 E0 22 F0
 27 8F 0A E2 86 A6 82 53 D9 F2 42 14 9C D2 42 53
 EB 29 0B AE 6C A6 24 8B EB 0B 87 54 F2 7D C0 9E
 10 09 78 DC 75 3E D9 FA 86 40 29 D0 9C 43 32 03
 2D B6 EB 00 EE AF 41 C6 E4 69 4A 32 DA 06 DE 74
 4D 9C B3 C8 AC 9C 68 77 D8 08 2F B9 A7 34 D9 D6
 7C 9A F6 C7 E0 58 F0 84 8B ED D5 6E 8B 50 5B 07
 45 D3 3D 86 14 D0 CB 9C 46 60 26 25 0B 7D 50 63
 70 F7 E3 62 35 9F DD 20 01 4D 22 58 3E CF CD AE
 83 46 93 C9 FC 97 2B C9 BF 16 01 E6 03 F8 2E 4C
 E7 58 5C 41 A2 C8 55 D0 93 8F 40 AE 75 67 66 E5
 83 B7 07 9B 7E 5F 76 B1 64 81 C0 EB 96 9E 69 86
 B3 B7 ED 59 67 99 C9 B7 E4 2E FF 9D 8D C8 66 25
 2E 02 7A 5A 95 DF 29 10 7D 49 47 3A 71 27 6B 1B
 43 5C 9A 7A FB EC C2 CD 09 C3 AB 34 F2 5A 0E 33
 57 58 D7 73 BE 3A C6 2E C2 6A 6C 33 4A 6B 72 7A
 61 D5 B6 DA D3 72 DC BB 94 27 B6 D1 32 66 FE DF
 50 D7 1D F0 F5 BD FB C4 B8 24 41 7B 55 1F DD EF
 56 47 33 76 6C 32 07 9A 23 08 FF B3 96 11 00 A5
 A7 86 2F 71 7D 07 B5 55 41 AB 5E F6 2C B3 2E B7
 28 79 F4 24 A8 EC FA 45 98 47 65 28 15 0F 31 8D
 35 1D DC 88 89 75 9E 62 74 A9 C8 4E 52 C2 1C 5A
 CC 48 54 F3 18 F6 73 C2 AB BF 58 B3 89 07 62 20
 E3 69 CD C4 10 C1 42 84 3E F8 5E CD D9 4E 3E FC
 81 DC 80 78 E4 D6 07 0B C8 1F 14 BD 9C 4A DA 33
 3F CB 29 76 2B DA F5 4F A6 1E 15 5D 7B 38 DD B1
 BC D1 81 05 C8 F6 39 EC FB 19 D2 1C 24 94 A7 53
 83 BB A1 4A A6 15 0B 64 DC DA F1 DF 08 CF A0 D8
 99 C1 1E 0A 24 AC EC 0E 2B FD 76 A7 EB AC 98 83
 9E 7A 4D D9 66 5E 6D 68 AB B2 E9 4E EE 22 D2 06
 38 68 58 E5 C7 EA 73 F0 93 99 37 ED 74 26 E9 37
 3B BC 9D 82 EA 48 BB 95 8F 47 79 39 53 0B F8 41
 B5 32 47 FE 7A 4D DF 43 6F A1 DD 5C B7 DB C3 ED
 D7 25 5A 9E 9B 72 F4 2A 8A 7B 26 20 BE 3C 84 6E
 44 F2 CB D7 CC 72 B6 57 0E AF DB 9B 5F C8 78 E6
 4E FE AC E6 0F 25 F9 91 D9 2E BA 6B 10 49 7B 91
 4B 3B A8 F1 C2 D9 55 88 8E 40 35 ED FB 7B 19 D4
 43 65 5F B7 B9 59 C4 1B 2D 48 32 17 B8 AA C9 0A
 39 83 B0 36 CE CF BB 70 13 73 2E 5A 67 CD 41 3C
 DF 1F 8C 86 3B 41 2C 20 B8 99 6E F6 B7 58 90 89
 F3 5F 1E 63 7F 2A 29 E8 DB AA 63 05 07 09 7B 9E
 5D FC 17 37 61 7B 9C A4 5F D3 1E B6 AA 11 E8 27
 1B 62 AC BC B8 E8 AF CF 3C A5 0F 0C A3 4A D0 44
 0E 2C 52 4D 53 1F E1 D8 E6 5E 26 99 79 14 4B A1
 37 6B 46 A3 01 51 43 2F 1B 7A 1E B0 B9 48 B1 F1
 AD 9F 4E B7 67 07 93 75 2C 47 D2 91 A8 FE 77 F2
 48 F6 D1 C7 77 05 A1 2B 14 43 8A 49 07 56 39 25
 76 A7 5A 76 B7 C3 C3 79 3F 2D 9E A2 FB F3 EB D1
 F5 A9 A8 D7 ED C0 F3 19 DC 7F 4E AD CA E7 F4 95
 0D AA 18 F0 48 40 BF 23 05 AA 96 5C 0D 79 D1 BC
 8A 25 95 CF A2 C6 8B 7F 8E 29 72 46 6F 3F 01 AD
 47 24 11 C7 90 2B 8D A1 16 05 91 58 40 FC 5A CE
 04 80 EF 54 2B 2C 29 C6 05 95 AD 98 D7 BF 9D 00
 75 CF BC 2C 22 E2 5B A2 73 C5 15 06 B6 9B 82 7F
 E3 18 7A 65 B6 17 D5 58 F0 D7 4D 4F B2 48 6C E4
 49 E7 EA 2F F5 3E 00 B4 AC 5F C5 EB 91 24 8B D1
 24 F8 55 88 73 AC 0A 69 0D C4 FE DC 20 02 5F E2
 44 08 63 47 E6 4F 2B A2 8E 06 F4 6C 46 96 53 DB
 8E F8 B6 C7 3A DB AA B2 E3 C7 17 C9 E4 0D 6F 33
 79 DA 4E 83 92 4F 6F C6 84 C0 0D 86 D4 8B 2A 1F
 3B 72 EE DC 3E 3E D6 6C B5 1F 5D 9A 9A B6 3A 30
 C5 BA 61 52 63 02 57 E7 9D 65 6D 55 50 5C 4B B4
 20 F4 07 A6 35 56 89 FA 4F 8E 0B 46 CE C2 A5 60
 8D 99 2B A8 7C 68 73 B8 C7 82 E5 99 D1 02 65 D5
 D2 C6 04 84 03 23 6C BD EE 24 1B 5E BA 1F B6 C6
 88 4B E9 48 EA BA 01 3F 43 A1 22 E2 1A 30 D3 D5
 E6 D6 13 40 CD F0 F8 92 4F 8B 28 81 F3 7E 46 CD
 1F F0 11 F3 32 1D 8D 54 61 03 45 C6 2C 12 BC 77
 ED 4C E6 3C 2F BE 1F 72 BF 75 61 7D FA 8A 4E 70
 75 E2 DC 91 3F AB 85 22 49 D3 F2 CC 11 02 4A BC
 66 38 17 92 D9 E5 82 0E 36 CC 20 20 CB 5B D0 A1
 B5 F7 E8 16 6E 35 83 71 78 17 75 98 07 C2 91 43
 5D 70 B1 E0 41 6B 2F D2 DC 81 45 4D 30 05 87 4A
 F6 6A 1D 12 1F D7 09 52 B3 3B 2E 19 3D 52 B9 67
 04 AA 2D 14 65 E5 86 2F A8 8E 8E 51 3C 48 25 A1
 DE DA AE 84 B5 24 22 BB F0 6F 8B BD 3C 70 0A 30
 3C 3A 3C 43 EE 31 32 33 A0 D3 DD 4A 52 CC 21 89
 6D 35 6A 09 10 2F A5 4A 80 10 02 2F 69 D0 89 72
 96 80 27 42 7F 07 93 1B A6 70 D5 79 F1 50 60 26
 37 E2 1A C2 C6 19 BB EC EE 77 7C 34 2D A4 36 8F
 D2 0F 40 EF B8 7B 0D 93 00 09 8D E0 9B 88 52 6B
 4A B3 7B 7C 74 44 9D F0 7D 08 8D 3D 65 BD 5F 2D
 A1 D5 21 8A 14 AB 63 1E 17 E7 D9 56 EA 97 08 AB
 FA 85 CE 61 28 D7 0A 30 5B 5D FC E3 D0 A3 E3 4A
 1D AF 75 FA 3C 81 CB 52 C9 F6 1C 1E D7 31 06 E2
 74 D4 98 4C 5A 40 98 1D 11 41 28 A0 53 C7 92 56
 47 01 43 B0 20 F2 AB B9 10 CD DA 63 49 53 BC 5A
 78 81 52 8D 40 8E A4 21 D8 4C E4 97 17 81 3B 21
 B9 4F 9D F6 A3 C3 C5 28 D6 97 4C 69 3C A6 66 94
 A9 7C E8 E6 8A 15 6F DB 26 37 3C E4 F0 77 B0 36
 8A EC A2 95 DA 10 42 B7 A2 60 C9 76 1A EA C2 0F
 78 9D F7 72 29 AE F5 AD E4 14 05 09 FF D6 A7 ED
 B7 CF 8C 51 E4 C0 C3 49 F4 24 7D 88 43 EB B9 5F
 D6 8D C9 F1 3E 83 92 3B 93 85 A4 3A 2C 01 A2 12
 40 36 B0 B3 17 71 4D C2 30 FA AF 76 EC A7 84 C4
 1F 80 D3 79 6A A4 DA 21 2A 66 FB 65 DF 63 89 01
 3B A2 1D 19 13 8F A8 E2 DA 5A 91 C9 8E 1E F2 CE
 56 1F CD 56 7B 8F 00 CD 3F CE 55 FE E0 6A E9 FD
 6C 60 39 9D 66 1C 66 BA 78 A2 D6 AB 8C C6 0C F4
 71 0C A9 3D D5 C4 BD 2E B0 C9 01 AF F7 36 7A 76
 01 05 8E D7 26 75 CF 8A 66 13 C2 E1 7B 94 3B B8
 12 79 AF 64 14 32 65 5C EF 83 0C 71 41 A2 47 F0
 D1 37 0E 06 8A BE 2C 9F D9 2F 36 D5 43 9E 6B D8
 6F 12 D6 C8 0E 3A 7F 0A 01 B2 82 B6 C1 DB E6 5C
 89 65 1F E4 41 3E 6A DB C6 64 8F 62 C8 42 5B 82
 3F 4C EC 8A 61 39 23 DA 99 33 1C 5A 7E 62 C4 82
 F9 68 30 2F 52 4B 75 3E 3E 23 F2 F1 2D E8 74 66
 55 AB 21 57 A6 6D 4A F7 AA 3D B1 91 DF 86 5E 00
 17 B9 F2 65 50 24 83 7D 65 66 3D 90 41 4E 89 DD
 D3 53 22 21 78 37 EA 87 ED DC 15 52 4F 96 5E B2
 08 B9 E1 30 82 EC 6A D0 97 AB 41 F3 54 3E C7 5F
 55 C2 2B 24 23 FF 4D 4D 8B 52 BE 43 EF DB DB F9
 2D 83 F1 A6 7A 3D 5A 15 2D 7D 45 4D 09 B7 1E FD
 2E 15 CB 25 9A 5A D3 F8 9F D6 E3 A3 E2 04 C6 C0
 5B 6C 65 A5 1B B3 64 E8
* End 719283009 2726038112