* LTspice Encrypted File
* 
* This encrypted file has been supplied by a 3rd
* party vendor that does not wish to publicize
* the technology used to implement this library.
* 
* Permission is granted to use this file for
* simulations but not to reverse engineer its
* contents.
* 
* Begin:
 3D 8A F8 70 71 DD F7 48 EF 72 BA 01 00 A0 BF FA
 F0 0C F5 EA DC 5B 4C CC 4D C9 29 0F 57 69 A6 C5
 83 F8 CC B0 21 F4 B9 AE 80 49 D1 44 E5 AA BE FE
 BA 4D F4 4A 48 EC E5 5B F3 42 97 20 5F DC F6 85
 E6 B0 E0 3A 51 B2 EB 70 6C 4B 8C 97 F6 38 98 5E
 4B 17 6D 65 9C 10 DD B8 5A E1 83 45 A4 8B 30 F6
 E1 E2 3C CF AF 4B 25 1A 1D 17 82 B7 F2 1B EF 83
 01 DD 2A D3 5F 4C CF FC AC 81 D2 4F A7 81 3F FF
 1B F0 D7 47 BA F0 0F 67 E6 41 75 65 11 19 89 A5
 29 C1 E7 B6 83 19 85 0F D9 10 73 45 93 08 F7 D2
 C4 AF C4 9E 67 DC 28 3B 08 62 6D 5A 81 60 0F FF
 7E 39 96 9C 13 49 72 A7 02 91 23 42 EA 7D 32 D2
 C1 97 90 CA E7 32 13 1A 3C B7 55 67 A5 20 DD 19
 B3 B8 9D 06 4B 1C A7 F7 B1 77 BF 23 D7 87 8D 43
 2F 9C 69 CC CF 78 8D 39 9D 57 66 28 28 C3 2B 62
 8A 4C 8A 78 9E 31 58 26 D6 4D 91 DB 60 A6 69 2F
 E8 50 7D 2D BD 3B 56 20 03 37 24 54 75 62 38 22
 06 A6 D0 37 45 CA EA B2 83 0D 1E A4 BE 00 BA DC
 13 2E FD 8B A7 1F 28 6B F3 14 C5 F7 18 67 A7 3A
 BB C6 A3 52 6A C5 0C 9A BC 0E 1D 43 E8 80 E6 56
 61 EF 67 E9 6C 78 55 C6 37 22 FC D1 35 91 5D 37
 47 FF DC 17 B2 DC 8D 72 7C 2D 8A 10 48 9E 28 3D
 16 BC 69 A9 5F 84 02 13 B9 C5 35 B5 9B 6C F1 31
 84 14 A3 0B 14 CD FB C9 6B AA FA 87 28 E5 0B B0
 4F 02 F6 73 53 77 40 6F 52 33 86 82 94 EC 2A F4
 20 9B E5 2A DC 9A BC 77 E9 A8 88 C5 C8 A3 A6 21
 0F 79 6B 75 9E 11 0F 14 46 CA 31 1B 1F 45 96 99
 BB BE 67 99 46 C7 3E 31 36 EA 09 29 2A 1B 94 F1
 1C D2 4E 38 6E 9B E1 40 F0 4B 8A E9 56 40 65 D4
 14 38 B6 4C CF C6 9F 33 C6 DC E0 EB 1E 49 8C BC
 9E D2 D5 38 49 8A 1A 67 6A 3D B3 BC D6 19 36 4F
 5E 3C 89 32 D8 F9 DA CC 25 20 33 D9 97 E0 92 0D
 58 09 65 BC B7 98 85 17 25 7F EC 14 8B 27 D9 2D
 57 CE C1 37 ED B1 C2 69 80 BD AE 08 78 0E B7 8F
 76 A8 B3 BA AE D4 6B 7C F6 7F 6E B1 F9 9B 90 EB
 1E AD C9 C1 B1 AA 59 C7 5A 03 F2 5C C3 6F 68 9B
 33 85 D3 62 82 9C 0D 8C D7 88 64 D3 F6 BF 57 42
 27 61 4B 6A 46 A9 CA E5 7D 25 5C F5 1F 54 21 95
 1F F4 8F 43 BB 4C 5F F7 18 6F 63 21 75 75 E4 A2
 3D 88 B9 DF 7E 5D DC C5 D4 E8 DE 83 8F B4 78 9B
 D7 6A 0C 6C E6 6B 01 D9 4E 3F B1 13 D5 D4 36 95
 5E D9 E6 19 4A 22 7F BF A0 97 66 9C 3F 73 2B C7
 F2 9A 27 9D 3F 61 27 FA 04 3D 74 B0 C8 CB 06 1A
 01 07 55 5D 35 BC D4 A3 3C CD 5F 34 87 7B 3A 9B
 75 FB 81 3A E7 14 3F E0 13 F9 11 3D 00 5D 04 BF
 F5 34 76 13 B5 CD 8A DB 2B FB 79 F1 5E ED D9 7E
 96 4B 71 9D 58 93 60 F9 76 EA 8A E5 F4 A4 08 B8
 2B 68 B2 9A 49 27 2E 65 2E F0 F2 2E 72 53 01 5C
 5B D9 0B E1 B9 88 C1 77 02 53 EB 10 9E 4E E4 89
 DB 8B 09 E0 4A 14 1A 5C 0E 2A 8C 4A F2 19 66 3B
 B2 86 D6 ED 65 01 AB 16 57 12 0B 02 97 F1 26 74
 AC 39 97 3A 48 0C E7 E2 57 A7 2D 1C 2C 29 58 46
 52 05 29 97 AA AD 0F 3C CB 94 C3 2D C2 46 99 E8
 13 5C 4B E6 83 66 C8 8E 95 B9 C1 3B 0C 04 DC E0
 FD 80 C1 17 4A DF 96 FB D4 D7 8A D9 36 58 5B 40
 3E C4 9B 06 B0 68 60 83 01 BF E4 B6 8D CA E1 FC
 02 6D 6D B4 1C 09 50 C6 50 70 B7 D1 54 AD BC DE
 04 24 90 C9 72 88 47 F0 89 BC 8B B8 F8 8E BF 06
 C9 1E 53 D7 05 EF CA 77 60 98 E3 1F 9E D4 7B E3
 20 43 3F 61 D7 85 F8 64 2D C8 C3 9A 87 53 5E 9B
 C9 73 03 DD F4 15 26 3B 45 CA 7E 8F 4A 1F 11 AD
 16 23 14 11 01 FF 16 71 9F 32 5F A9 E7 8D 3C 2D
 A9 42 40 A8 30 EE FC 94 74 BE E0 DF 62 3A 5E 9F
 E7 FB 08 67 F8 A1 E1 33 B1 98 44 0C A4 0E 9D 17
 C4 55 F6 AE 3C 02 B0 F0 30 9E D3 48 70 FC 64 12
 D5 99 C5 74 5A 10 BD 4B 2C 47 B3 9F 47 37 DC 1F
 18 C4 57 41 CE 9A 30 DF 0E F0 42 7E 1D E5 B1 D5
 CE FC 68 29 AD ED 98 33 E3 69 EA 75 C3 64 F3 98
 6D 2D 6F B9 F3 2F 6F FA 34 61 E2 8C 35 CD 44 58
 F0 0C 95 C2 49 B5 B2 3B CA 46 0A 95 FC A0 5B E9
 8C 95 E6 BF 6A 94 EB 09 4C DF 04 0C 32 EE BE CB
 7F F1 62 91 57 75 A4 1C D5 9D CD F0 31 ED CD F5
 0D 3F 21 17 29 CB 45 ED CC CE 6D 08 2E 97 E4 EC
 D3 5F E3 D6 FA F3 3B 5B A1 C9 DF 07 FB 85 29 A7
 80 27 B5 13 E6 30 25 88 12 97 1B 77 7C E7 F0 B5
 BE 85 D2 7C AE 78 C2 6D 37 F3 A8 E5 E8 9F AE B2
 23 1D 2C DF 47 01 0F DA 4E 85 44 5B 97 75 BF 18
 6A 9A 1B 47 8F FA 7E C3 06 21 FC D7 7A 78 B2 BD
 AF 5E EA 31 E5 49 14 44 84 FE CC F2 12 55 91 75
 CB EE 22 47 C6 E1 BC 51 5E 04 CB 04 18 D1 2B EA
 BE 03 FA 28 94 6E A5 CA 26 68 F5 D9 29 63 22 88
 E2 4D 31 9D 2A F9 82 CF 2C A3 86 32 1F 74 55 09
 A1 E3 D3 FA 9F 46 D3 6D B2 A3 D4 6A 54 BC 9A 41
 45 D2 5D 3E 84 1C 7C 58 AC F1 64 53 CF B2 53 14
 1C E1 ED CA B0 7C 45 6F A7 D3 52 01 4E A1 49 B8
 A5 39 2F AF 01 62 89 DB 20 7C 6B C1 6A B1 35 5C
 72 FA 99 8B B9 71 FA 67 69 23 28 9C 27 D8 A5 5E
 EA B5 12 5C 58 46 D3 31 6F 59 CE AE AD E8 33 91
 EE 61 74 0C 6E 17 48 5B CE 07 55 61 D0 50 38 FD
 58 E1 5A 6F E4 4F BE 9F 87 C7 1B 5E 3F 9F 06 0B
 E4 13 0F 5B DF D5 A3 C1 E8 18 3F 27 8D 2D 3E 81
 BA 70 8C 7F DE 7F 5F 9B C1 A7 58 4B B8 8C D9 00
 66 66 F6 38 D1 30 82 E6 64 88 84 C7 25 62 EE 9F
 F4 02 D5 8C B1 CC 93 EB 21 B3 E2 D7 57 69 11 F4
 5D B8 15 21 E6 A1 4B CB 5C 32 7F 49 A5 E1 53 16
 67 7F 16 65 40 78 F4 F8 D6 0A 57 87 E7 FF A9 78
 C4 2E 25 22 B4 49 1B F7 29 5F 75 B2 A4 1E 8B 2C
 B8 A3 8E B3 49 9B 76 56 00 64 4E BE D6 E8 D0 42
 4B D9 96 19 6C 52 88 B8 F8 35 32 15 3E F3 4A 23
 91 D1 F2 81 25 16 47 B8 77 6B 01 95 1C 54 A7 6D
 5D 37 76 E7 4D B7 A9 33 35 83 26 DD 03 BD 11 AA
 6A 1D 8A C3 AA AC 5E F5 E4 EB C4 69 30 02 94 F6
 1F A0 1F D7 C5 3B 16 E1 E8 8E 0B 81 E4 05 0D DE
 26 D6 D9 C6 64 61 4A EA BE 60 E0 3A BE C3 E0 D0
 0E EC B2 D9 27 F9 54 AF 63 5E AF 34 AA CE 30 3C
 77 43 D9 F1 6B C7 77 01 95 F3 81 A0 1C 86 19 AE
 7F F1 A4 B7 BD A6 97 12 AB 72 07 62 2F 16 2F 99
 54 45 88 B1 60 E5 18 90 A4 E1 7B 3C 54 3D 8E B8
 B6 DB C0 E6 11 9B 57 2B B3 45 0C CC 8B 62 26 3F
 14 DB 63 F2 53 98 F5 7B 86 F8 1E 8C B4 10 A3 35
 01 5C 5D 79 1D E2 A0 16 85 C1 13 1D 0C EC 9E C5
 73 7A 0F EA CA 1B 0B 5C B8 39 B0 07 03 B9 F4 79
 19 60 1D 81 CD 35 BB FB 77 23 5A BA 7E 29 72 C4
 99 06 91 33 DF 37 A2 A7 F6 F8 31 02 54 AF F6 12
 5C 68 40 DE A3 5F A4 71 D9 0B 24 49 C7 83 B5 0B
 2F 8F F6 8A F5 58 08 00 90 9D D6 C7 C1 BF A2 21
 80 B3 ED FD 09 F8 25 03 E5 25 62 A4 3E 65 79 F7
 2E 20 F4 52 DA B3 E7 18 BA AC 4B 17 C7 FD A4 F1
 73 72 B7 96 01 22 95 EE F4 FA 13 AF 11 B0 D9 92
 58 CF 4B 75 DE 21 62 B6 9A 04 87 6C 18 FE 8D 80
 06 EC 4A AD D2 AE 7B 61 85 C5 1C 38 D2 87 88 34
 8E F6 58 36 E1 67 C7 5D 4C 9F 8A 17 29 7C C6 E8
 8B 84 3F 2E 93 79 93 7D 98 B7 CD AE 26 CE 76 4A
 E0 E0 11 20 D6 71 DB 0F 12 1B 54 81 FF E4 78 E5
 04 A7 19 67 A2 32 21 B8 9E 27 A7 84 83 D7 8D 77
 7A 8C 3B D9 E0 DE E5 9A 66 9D 3A 73 23 2B E0 D5
 51 B5 D2 DC D7 B4 38 84 64 97 BB F4 8B 50 5E 41
 09 CB D3 8F F0 E2 84 53 59 12 EB C6 15 60 9F AD
 79 B5 0E 62 2B 8B 71 7D 09 BC B7 32 57 D3 B3 35
 25 A3 EE 29 6C 96 8D 1E 7A E4 9B CA EC 42 7F E0
 09 B4 55 D7 00 18 CF 47 1A B8 7C 39 1C 49 D5 10
 4D 3F D6 5B 08 20 06 F3 A3 89 DC 72 5F 3A 95 3F
 EF FF 07 14 2A D9 A3 83 D1 D3 00 AA 94 C7 16 98
 90 FE 6A 6B EB 15 C1 82 D3 53 5E 63 1E 83 6F 31
 BF 05 32 C0 4C 2C A8 09 11 30 BA 6A FE B0 15 71
 9D FC 36 D6 E4 81 B7 F6 E6 C7 6A 5E 19 D2 CA 08
 3D 28 65 0A E8 6F 6D 86 D3 1A 10 7A 63 44 8C 0F
 6A 08 33 14 7E 2F 49 06 7B 20 49 70 D8 8E C6 29
 16 02 B4 C5 A1 62 87 DD AF 60 B7 4C 0A BB 99 F6
 A0 00 B3 FA 80 B0 6C 54 DC 0E 6D 77 E1 19 6F 56
 16 47 10 12 A0 4B E4 FD 8F 0D B6 3E 6F BA 6C FF
 DF 01 76 81 5E 57 29 79 EF 46 72 B1 9C 0A 0B EB
 20 58 0A 1A BE 66 0E 0A 19 36 C9 EE B9 73 C5 67
 8D 66 5F 75 8F 89 D2 4E 09 07 1B 05 1B 41 0B 3A
 1E 74 13 41 92 F7 83 D1 79 B0 EB 8E 3A 5D C6 36
 66 AE 78 82 0A 5F F3 38 2C 62 6B 8F A9 A5 46 05
 46 4F DA 7C C6 C5 8A EB D1 A7 A2 82 F8 F5 FB FB
 1E B1 1F D3 80 0E 3E 2C 98 3F A1 A2 D1 22 DF EA
 20 29 2B 11 5F 5B A4 00 ED 1F FB FA 32 12 02 3E
 15 B7 4A A3 CB 91 CD 74 A1 E4 22 6F 04 47 28 6E
 5F CA B3 2C DE 44 F1 AA 32 87 6B 31 0F B0 83 03
 3E 51 CF A9 83 A4 6F C7 4A 0F BA 6A 09 9D 0B 6F
 8E 3A 33 F6 F8 E3 4A 59 70 C5 3F 68 19 4E B8 D5
 18 49 05 75 EE 95 45 EC A8 BB D5 8A D3 24 93 D6
 2D 81 8D FA 64 23 C6 8B 02 72 45 00 5A DF 93 E3
 F8 61 84 9C 27 17 D6 A1 10 E7 3A 1D CF 7F 1C 38
 F7 38 E7 38 62 E6 35 0B D8 BA 97 71 33 3F C0 CD
 E8 AE E9 B7 A3 CA 2A 99 47 C4 3C F3 A2 36 15 CD
 26 98 21 19 54 7A 66 75 BA 6E 0B 52 0A 69 3D 98
 B9 07 3E 46 8D D2 0D FE F7 96 D0 6D 33 5C 56 E3
 CA B7 D7 7E 68 B8 FD 86 2D 29 A6 FC E5 92 D2 F6
 6A 68 D2 F5 44 81 B3 D0 29 A7 22 D8 13 D9 A1 6C
 C1 A2 11 31 D4 68 1B 58 09 9B 50 B6 4E F3 F8 4A
 2F 90 F6 01 2A 48 70 42 65 65 A8 DA C9 F9 64 74
 81 5F D8 DA C9 EE 79 30 B8 CE D8 C7 D5 7C 5B AB
 F4 9F EA 9A 6E C0 F6 93 D9 11 ED 39 3B 45 ED B5
 DC CD DA BD D8 5A D5 92 DA F1 B2 5B 0C 95 74 85
 4A A9 AA 80 06 8E A6 5A 58 9D BA B6 0C E4 43 32
 A9 93 15 1A 6A 5C B4 9B 0C 70 E6 C2 8B 70 E9 78
 BF 39 22 99 E5 A7 35 63 D0 7F 4C F1 EE E3 AA 3E
 A4 58 C7 95 78 FD 6B D9 F3 9A 88 97 AC 3B F3 64
 29 33 47 1F F2 40 23 EF 58 0E 6C 7C 32 79 97 F5
 56 D9 8E 0E FA 95 30 D7 15 7B 4B 4B B6 06 32 EF
 8C A8 FE 55 25 AC 20 37 B7 EB 56 09 CA 48 3D 71
 90 A6 C8 EB 77 0D 65 2C 73 13 DF 39 90 90 69 B0
 1D 67 78 04 55 3E 07 84 B9 FD A5 D0 11 79 13 E5
 17 63 04 EC 25 B9 BD CB 05 26 52 3F 85 09 70 94
 5D 28 65 CD E9 87 C3 6C 8D 8D F5 3C 1D 31 3B DC
 37 C5 A5 D0 E1 0C A1 E2 99 90 29 E3 6B 5D 9E 39
 6C 1C 18 BB 07 25 87 C9 A5 BE D4 F3 E1 2F 4E B6
 B2 26 47 0D C8 0F 6D 28 2D 59 CE EF A3 2D 53 C1
 B1 14 A9 52 AC 63 39 03 91 70 A3 B4 6F F2 D9 73
 F6 F8 BD B3 5C 04 B1 BE 41 36 97 36 2A D3 CD 59
 5F E6 8C B6 51 75 9E D0 46 14 A9 03 37 43 6B 8C
 36 F2 F8 AF 8A 8F AF 3E 75 9E 1A 06 74 8F 7D 9E
 A6 78 20 86 AE 93 4F A3 37 48 F4 75 9E 97 C3 46
 E2 3A 03 9A 05 96 AA B4 D0 BE CC 1F 2F 3A 7D BD
 05 B9 FD 4D 89 5B 63 63 0F 03 5F BE E9 31 EC 78
 30 36 CB AB 1F BE 4B E9 4E BB 9C B1 64 36 DA C4
 FB 73 6A FC F9 94 7C 89 FF 00 E0 1C 19 52 EF 0E
 5C A5 E9 1C 90 B2 BC 30 57 1B F7 44 1D 3E E3 53
 46 41 A4 E8 D3 BD C3 85 65 2C EE D8 0C F2 07 1D
 73 C4 87 67 B0 C8 54 58 D8 E6 83 36 38 D5 41 3C
 09 EC D2 B8 DD 26 78 56 9E DD 31 8D 22 75 3E C4
 83 84 D9 E8 13 D0 F7 30 35 03 74 DD 73 0B 38 00
 68 A2 B1 A5 50 D4 13 06 1B E5 C2 3F E4 28 E5 DB
 E8 99 A0 F7 6C 76 6E E0 E2 35 51 B7 72 47 A3 CA
 39 13 78 17 19 C0 37 90 70 B2 EA 0E 93 68 37 E6
 10 FF 6E 8F 5B 37 3C 12 BD 28 38 38 37 7C A5 5B
 54 4F F4 A9 EB 09 27 0B B7 35 A5 AC 1D F8 F4 52
 57 70 2D 6B A8 42 3B E8 03 C7 D0 C9 24 A9 B8 2D
 45 69 EF 64 67 EE D3 1A 0F 7D 82 56 38 C1 6E AF
 E1 87 42 BA 72 FD 37 CD 41 68 4D 28 D0 4D CE FE
 8D 04 B9 64 75 CD E8 7C 90 26 C5 36 F7 31 5F FC
 C6 6A 6F 4D BC E0 34 67 37 3D 2B CB 2D 88 6F 5D
 19 5B 0E FF A7 F5 DE E1 9C DB 23 97 4C 82 79 A3
 5E B8 FD 42 16 3A 49 BE CF 74 FF 75 C5 3A 9F 9C
 4D 86 6A CE C2 59 18 47 CE FB A7 E1 4A 03 3F B6
 67 AA 47 2A 34 80 1B 64 29 DB B6 81 09 78 DD B1
 28 94 33 FE 20 D8 0D 36 55 BF 62 62 53 D0 AC 33
 40 CF 2B EA 87 86 A3 F5 86 78 F2 D4 C1 DB 01 BA
 97 95 1C D0 D8 B3 F7 8E CB 7F 2E 4D 2E B4 9A A8
 1B C3 7F 26 5F 64 CC 99 AA 66 07 16 EF D5 94 86
 1A F7 71 B8 1B AF 64 11 56 CD 81 6F EC 62 4C 05
 CE 0C 4E 4D B3 04 35 A7 0B 23 53 7D DF BF 0B 6C
 B0 15 AB 28 FD F5 C1 97 04 9E 6B 85 78 A7 3B 16
 81 33 68 9F 5B F3 43 8F 65 1E 61 CA CB D6 88 03
 11 8C C3 B6 3B FA 38 00 4F E3 D5 DC F4 8F 1B 73
 B2 8C 21 99 12 93 13 B8 91 E1 09 C4 60 70 A0 82
 CC E3 61 68 14 1A 3B 31 74 AD 8B 2E E6 09 DE 0F
 FA DF DF A6 6E 0D F7 1F 1D FE 8D 3D A0 E9 A8 FC
 66 C6 79 BB 2A 8D 8B 7C 67 7E 6F 2A B6 D7 F9 C5
 08 98 08 A8 E8 D9 70 AD 64 1A 41 71 AE 2B 85 BB
 54 66 A6 17 CA CB AD 8E 98 54 E1 D1 65 E2 FF B3
 86 65 A2 8D A7 0A 51 21 67 11 56 C2 AA EC 3F D2
 95 0F 83 D8 F1 D7 F5 81 C8 8B D6 3A A7 40 FB C3
 92 AF 4E B7 AF 07 00 F7 4A 37 9B C8 B2 68 02 6D
 CF 40 99 EF 4C B4 6E AD DD C0 A7 3E 69 EB 41 10
 0E C0 A7 42 57 CD 5E 4F 42 1D A2 96 29 38 78 14
 52 6F EC 86 77 82 C6 63 FC 70 6D 56 F5 93 33 08
 B6 99 4F E9 C5 E6 86 67 C1 18 49 24 B2 59 CD A3
 53 94 88 22 B5 EC C5 D8 4B E6 C1 5C 22 73 A0 6C
 02 00 95 BB 6A 4D AA A9 6F 01 CC BB 3F 2B F4 71
 DF EF 45 2C 18 F4 39 4C C1 88 9C 85 3D 92 16 A0
 EE D9 33 B9 DB 5C 91 F7 36 F4 66 31 EE 22 5D B5
 1C 76 4B 44 01 49 99 D0 E5 6B 0F 55 5C 0A A5 F3
 05 87 6D 62 55 91 A5 70 AC DD BF 4D A0 93 02 CC
 DC EA 92 B9 10 71 A1 4A 9A D2 1B B1 C8 57 72 C0
 28 75 D1 F2 EE C0 C4 1E BE 83 78 E4 E4 59 47 BB
 FF 08 A6 E7 C9 E0 75 0B 31 83 54 93 52 AE 25 91
 65 DC B0 C8 D4 6B 61 96 75 09 22 FC 2E 79 29 63
 32 D1 98 E5 69 CC F6 1C F5 B2 4B CA F5 C9 4F 74
 78 30 EF 1F 65 62 6B F1 9D FC 5E C1 7C 1A D9 F7
 05 AC 29 91 8F 67 18 D3 02 0E D5 9F 15 D6 5D 15
 53 71 94 22 08 B2 62 D6 E9 0F BD E9 50 69 61 11
 56 39 B7 31 E2 E8 45 74 46 5F C2 C2 CF FF CD 84
 07 05 06 56 C8 AF FE 8E 26 6B BA D6 BC 3E EB A5
 E9 BD A6 99 26 41 28 69 A0 60 C5 E7 5D 42 70 73
 5A 1B AA D7 20 C4 2B DB 7B 7A 23 3A E1 93 B4 D9
 F0 D1 18 33 C3 69 E1 FB F1 EB 7A 44 40 8A 32 98
 A0 85 5F B1 A0 F6 96 09 B9 0B A8 43 86 9B D5 4C
 EA 1C FD 45 B3 DB F1 7F 41 23 78 08 2C DA 06 E6
 51 2E C0 32 5C CB D9 AB 16 46 45 DF 5E 5D A8 93
 79 68 F3 74 AD 7C 70 9B D7 29 D6 5F 74 0B 50 FC
 C9 A7 24 D1 1C BB F8 FE D8 A6 62 59 49 9B 79 57
 D2 DD 82 C8 EF B0 28 52 96 14 AB 03 D7 E8 D2 91
 8E B4 01 47 F2 01 D9 F9 FF A2 00 F3 AF 6A 58 62
 1C DE B1 89 C0 10 09 C4 95 E3 A5 5B 8D 89 05 2E
 E1 B0 87 F8 8D EF AA 45 ED B6 FC 0A 18 0B AA 25
 F5 CA 88 13 F4 F8 20 F2 16 8C D3 63 4D 00 29 97
 04 B5 85 D2 7B 6B B6 87 3A 38 B9 71 33 C0 8E 5C
 90 F2 F4 21 08 E1 BF 07 04 F1 0B DF DD 5A 7B A0
 27 C1 F2 F0 48 A1 C8 BC 68 74 C5 76 17 CD 20 61
 F2 DE D1 23 77 D4 1E 4A 96 7A 9F 8F CA E1 4A 70
 54 C1 83 2D 3E 48 E1 25 4C C8 C5 0E 0A 55 27 1A
 4E B3 0C DE AC 10 5E 97 6A CD C4 16 65 6C E2 58
 7E 5D 9A 76 CC 21 44 7A 11 21 65 02 3C 25 B0 3D
 8B 7F 23 D8 43 B2 33 86 0D 78 CE 6D C7 82 7D 75
 52 EB 46 A2 8B 5E 0A 0A 9F 8E C0 E2 DB D6 EE E8
 BE B6 EC 03 DA 7C FA B0 1E C0 31 DC 1C AF 9B 60
 D8 84 C7 12 0C 95 DA 80 8C D8 2E 7F 01 96 E8 D9
 82 BD 8C A3 F6 5F 22 D0 0D 01 67 4B 79 D8 5E 0C
 4D BD 83 A3 86 2F A2 1E BD 03 1E DB E1 22 DD 5E
 30 B5 0C B6 A1 82 B9 27 39 2A 84 31 25 A6 26 EF
 EA 15 D6 5A 7C F4 59 57 84 61 CB 36 57 35 27 2C
 F9 3B 52 68 92 97 36 1A F2 3D 83 CA C8 53 03 5F
 45 02 9E A9 74 74 DA 67 BC 0E DB 45 99 FD D8 48
 A0 0C E6 A7 A0 15 BE 69 DB 0D B1 3C BB 56 DE 6C
 D3 28 DE 30 63 26 F7 5A E7 8E 8F DA B7 40 EA 88
 E5 8A 49 D6 65 7B A7 41 AD 37 7F 02 07 D2 7D CC
 08 F4 D4 F3 A5 B4 D8 A8 FF 49 F4 E5 91 CC AE 58
 E4 6B 05 0C 03 72 BF B3 A9 BE 1E 04 82 13 29 1D
 92 A8 65 47 B6 1A F4 A6 70 3A DE C1 D8 D1 23 A2
 9F 03 DB 8E BF 47 76 96 ED F1 BF 67 80 7A 44 1A
 DE CB F3 A7 DA 46 64 D7 78 BF BE FF 2E D6 88 1D
 EB 9E 0F 24 CC 14 A5 B4 88 69 8B 65 09 15 73 19
 69 03 66 2E C9 44 7A 54 30 A7 C7 DC 2F EA BD 4A
 80 88 51 4E D6 2E 00 32 63 BE 7C 21 73 37 2E F8
 10 A6 DC 92 44 B9 1E 42 F0 70 82 A7 D8 2A 52 C9
 B5 5C 40 02 D5 77 DE 14 2B C4 CE 5B 23 73 89 67
 15 C8 0A 6A CA 6A B6 C2 62 60 09 E1 FD A5 37 1C
 62 5D 64 D5 D6 80 DA 7B 43 4E 53 27 CD D6 37 05
 22 87 B4 EB 28 D4 44 3D 42 72 F8 CC 80 95 15 D7
 5F 24 65 E7 39 61 49 1E 49 A8 F2 5D A7 34 83 67
 C6 AA 2C 35 BD 18 31 13 81 48 B5 51 4E FF 1E B1
 4D 28 50 EC 7E 15 15 96 A5 B0 67 64 E6 BF 28 EE
 F2 CC D4 68 B8 70 7D 9A 6B FC FC 64 0C 13 2F E4
 54 13 D6 05 88 E1 48 BD E3 4E B6 D7 1A E1 08 6B
 5A FC E5 F4 07 6C CE AD 33 D5 50 C9 15 89 7A CF
 F2 61 38 66 15 FC 4D FE 57 53 82 33 0D D1 3A CB
 F7 3C BC 0E 6C FB 77 DB 30 B6 3B BC 7A CD C5 E4
 53 49 5C E6 29 53 37 7D D4 B2 3F 04 18 72 F8 6B
 5B 96 CF 0D 30 6C F2 C3 BF E0 41 0D 19 A3 34 E4
 81 1E 6F BC 2D 23 E0 3A 73 76 E4 49 56 76 33 CB
 9D F7 74 6C 16 4D 5A 81 4F 7A 1D DD 0F 54 6E E3
 04 26 75 95 EA EC FB A6 F6 D5 7E DB F3 B6 32 65
 D4 73 26 A3 FF 3D 26 8B 90 67 E6 D1 29 D5 C4 B4
 D9 36 32 E7 AE 04 E4 5E 28 B4 08 05 51 A6 72 2E
 DE E0 ED E4 E8 C5 91 0E BA 11 EE 32 95 00 C0 F6
 76 8A FD 9A 9A DB 9D D8 36 09 E1 B3 97 AC E3 59
 B0 14 76 7E 0A 34 99 9E ED 3F 7E 4D 36 7C 25 1B
 99 61 FC EA 52 51 3A 37 31 85 AB 99 9F 06 33 59
 60 91 DD C4 47 F7 FC CD FF A0 9E 7D 1E 54 52 BA
 21 CA 68 5E 2D 00 E6 A0 F8 A8 C8 E6 07 6F B9 F6
 26 AC 0B EC 94 9B 04 52 FD DD 8B 62 45 E9 60 B2
 7B 19 3D 40 B2 DF FA 28 A3 E2 C9 F1 98 7A 39 F7
 D6 5A 17 A9 D9 08 0C B7 6E 82 49 FB 30 AC 35 1F
 A2 45 11 2D 1B A7 D1 40 2D D2 5E AA 99 73 07 C9
 FF 89 38 8E E6 52 19 FF A3 B8 79 64 96 B2 62 0A
 A5 5C C5 22 DE A6 94 14 44 5B CA 11 65 BB BC 0D
 9F 0A 04 57 60 FE 0D B2 8F 40 F8 45 6D 30 73 BC
 8D B9 38 23 42 11 EA 01 12 C5 B0 0F 15 B5 D8 30
 99 AC A0 F1 44 BE 28 39 7F AE C1 ED E2 8E 11 AA
 01 A3 AA 4F 7E 4A C4 68 32 46 05 8A AA 17 03 6A
 A8 FF 50 F8 28 8F C9 D6 7C A0 E4 D5 41 12 C1 7F
 82 15 1B 45 87 AB 6C 54 A7 5C 7D 85 A9 E2 4F B7
 84 45 80 16 95 72 7C 37 B9 01 39 DD C0 55 F6 D3
 CA 79 88 70 17 57 B1 19 56 C5 88 1D 5C 83 34 71
 CE C0 C5 D3 15 75 F9 28 6A 33 AE A4 23 51 13 1F
 16 74 52 7E 22 F8 29 C3 36 83 A2 B2 C4 7A F6 B6
 55 B0 83 F0 7A 6E 74 48 BB 30 ED 5C AF 12 96 F6
 67 97 E9 16 47 FE 79 8A FB 7E EA 12 DA 2B EE 25
 B8 11 1D 88 91 46 72 58 D7 EF BF A0 5D 18 75 F4
 82 B3 73 F6 1E B9 F8 DA 9E 2E 9E 2C B3 FF 96 AA
 50 30 E9 12 8B E1 B2 2A AE 4B F9 83 1A C7 8D DA
 8B 26 2F 74 34 A0 A7 5F 2A C1 46 8E 76 B1 95 07
 E4 28 1B 1F E7 DC 3B 81 2C D4 E4 84 8B 1F 4B E1
 63 0E B3 1A B7 BC 23 FF 95 D1 25 8B 4B A9 A1 D1
 9A 9D F5 A7 DA 8A 50 B0 58 3E D8 3E 3E 68 F0 78
 49 4B 5C BE 30 E1 44 C3 E8 5A 27 42 68 21 BC FA
 C5 A3 BE 78 57 17 94 1C F5 44 EC 40 56 C4 1B 54
 8F 89 42 03 AC BD 38 07 9B BE E2 BF 68 AB 96 AF
 71 9E D7 C8 5B BA 50 B1 A5 F0 F3 27 B1 41 A3 FD
 58 4F E6 8B B8 7A A0 B1 F4 1F 78 A6 36 E1 9B BA
 21 1D 60 F2 1C 18 5E 3F 68 8C 3B 2B 9C 29 11 B0
 8F 8E 8D 93 C2 5A B0 D8 DC 52 D4 AE 52 15 ED BA
 BA 2E 3B 05 CB E6 E9 5F A2 88 EE 45 4D A9 80 E1
 BF 40 7F 1B CB 49 28 01 69 78 20 38 3C 45 CE 49
 3C C6 3B 1F 96 CA 8A 93 B3 F3 C0 CA 3D AD 40 B2
 E3 45 28 7B DA C8 38 01 71 68 6E D6 E0 E2 87 62
 E0 2B 01 5C 0F 2F 74 36 19 8B 22 F0 1C 6C A1 07
 C1 AC 1A 63 55 B9 5B E2 3E 23 D6 C6 52 3B E3 E0
 E4 B2 4B 76 C6 3B BA 1C 92 9F 23 BD 83 FB B0 9B
 F1 6F 60 80 8D 92 A6 DC CA 4E CE 36 AE A5 64 EF
 DC 85 1D 0A 81 EA D7 1F CF 89 BA 3C 43 D4 4D C9
 19 3B 40 50 05 0D A1 AD A6 C3 19 57 A8 2C 5E 67
 0D 48 2D 42 B1 37 7D 3C 9E EC 22 CB 86 6E D6 79
 02 F7 A6 98 B5 9C 1A 69 DF F5 29 03 42 6D 9C 59
 69 A7 40 C9 0A 6E 6C AB 0B 55 AD 6B 69 D5 86 41
 2C E5 8C 36 96 08 46 E6 32 AF B0 8A DC 2A 39 0E
 F8 3D F4 48 4A 30 38 28 A5 DE 4D F0 D5 02 F6 DD
 9E CD 28 19 81 48 A6 62 50 AA D6 11 14 BF 59 09
 77 F9 A9 3B 28 D5 96 51 D2 3A D2 46 4F 4B 77 E7
 1E B9 DA FD 4A C9 65 AD 15 C8 95 81 6F 32 4A F9
 F6 0C 4F 57 30 A0 FE 76 FD 6B B7 AD E0 A7 02 23
 0B 1B E3 B1 00 FE D6 46 45 00 98 19 3C 76 11 4E
 EA F0 1A C6 70 6A CE 2B 3F B9 C7 06 36 BD 8A 1E
 88 54 5C 4A 20 97 E7 3F FE F6 83 A4 1D 4D 23 11
 07 5A 47 9D EB 0F B0 85 D2 06 4C 97 4A 1D 05 BC
 F1 4A 6F E4 4F 84 EA 2C 36 06 0A 9E AE FC 47 E1
 D9 63 E3 E8 44 CD 32 85 FE 18 7F 84 34 52 A7 C1
 2D AC 70 BB 20 27 12 59 EE 3D 17 FA 67 19 72 9E
 3F FF 65 CC 81 66 47 28 50 97 A8 DB FA 6B 1C 41
 C3 D2 A7 19 8D B2 B2 85 AE 41 DD 3A 60 DD D4 B4
 DF 30 68 13 D6 64 F9 D0 1C F2 E9 3D C2 A1 EA 56
 2A 6B EB BA E7 70 C3 67 CD 35 7B 09 6F E8 6E 8B
 33 AE 85 0F EE A1 2A B6 86 E0 79 F0 21 14 06 73
 E7 EE 4A DE F3 0B 4C AC AC 0E FE 18 0C C3 1C E4
 6A 4C 7E 64 7D E3 29 CA C2 8B B3 EF 89 35 04 47
 01 25 85 F5 6B 67 04 21 44 92 29 17 5F 22 53 AF
 3C FD 0E 04 E1 F4 DD 9D C7 56 2B 3D 8E EA 4D 68
 B7 C0 61 88 10 3C 7C A2 4D 89 A7 59 B7 BA 34 7B
 D0 C8 C3 CE CC 42 B7 BF EA D6 98 40 D8 64 61 42
 E8 7C D6 99 18 FA EC 9F C0 8C 54 0A AE 3E 24 6D
 69 83 A0 16 F5 18 6B F8 51 0A 9A 43 00 54 6F EE
 B5 BA 6E F8 8F F4 85 CC 70 D9 58 7E E7 B4 43 12
 D6 44 87 0D D5 45 FD 5B 4C 39 AA 07 C9 21 EE A6
 A4 A6 81 8E 7A 99 6D 9F 86 9F FD FB 08 56 AD 9D
 02 31 0F 66 CD 35 73 DE BF E1 6C 5A 76 DD 84 E5
 4E 8A 20 33 3E 9D 57 6E BD 46 C9 D3 BA 6C 39 E1
 F2 7E 75 58 C5 F8 24 31 2E 1B 22 8B 5C 50 EC 97
 A5 9B DA C0 17 8F 91 27 3F 2A A3 D1 F6 60 5C D6
 2B 2C 57 36 D9 D1 CC B3 4A BD 95 A2 0C 73 3C CF
 AF 56 72 40 56 34 E8 6A 50 99 74 29 3A A1 2E 2D
 5C 3D 71 86 8C 42 EE E8 88 3E 6F 4B 19 D4 00 5A
 43 08 27 77 25 AB DC A8 6F 22 9A 49 BB 38 C8 58
* End 1330047631 2331841081