* LTspice Encrypted File
* 
* This encrypted file has been supplied by a 3rd
* party vendor that does not wish to publicize
* the technology used to implement this library.
* 
* Permission is granted to use this file for
* simulations but not to reverse engineer its
* contents.
* 
* Begin:
 3E E6 25 81 A7 54 05 14 EF 56 5A F2 44 31 B4 F5
 C7 88 3B 1B A7 67 C3 EB 26 1D 4C 39 9B 65 8D 5F
 1C 19 BD 56 55 B5 47 60 F0 92 0C 82 EE 54 B1 C5
 0F B5 E5 ED 27 5B 06 CF 64 04 F8 12 EF D4 89 63
 04 50 83 DD 94 13 FE 0A 7A 6C DF 11 03 45 ED 69
 C8 B6 29 E4 6C F8 72 08 5B D7 11 A9 AC 1C 06 89
 DE E4 DF 7F A1 E8 3A FB E9 5B 57 1D 0A F9 E5 BD
 11 7F D4 67 3B 9F E2 68 0C 6B 21 55 C4 31 53 18
 D3 56 EE 31 9C 7D 95 52 A8 93 C3 E0 93 7F 1E B0
 24 EE 98 DE E2 74 1E 65 15 B0 22 34 4C 0D 73 B4
 42 D2 9D F4 D3 1B 4C 28 97 FE B6 89 1A 59 D3 D4
 49 4E EE 33 1C 20 D7 FC 2C 74 94 33 13 EE D1 7A
 CD 51 A1 02 E3 BA F7 72 CC E9 4B 97 0B D6 3F 52
 56 8F 62 A3 3B A1 63 3D 75 A2 5C 9B 31 B9 10 B6
 B2 06 FE C0 56 23 46 47 9C 66 A4 44 C1 6B 2E A7
 6F 75 71 49 4D 36 30 91 52 4D D6 DD F8 AB E9 A0
 E0 3D 59 FC 8B A0 70 C4 13 52 C6 89 CD FE FE 25
 7B 17 AA BC 8A 7F 26 0D 29 0F F2 70 85 D2 05 65
 60 5B BC 1F 9C 8C B2 AD 41 96 D8 3E 82 26 48 9C
 99 30 B1 1C E6 77 8A CB DA 71 87 D9 0A F9 FC 11
 AF 6C 3A 40 A8 B9 97 9C 6E 19 14 83 C5 B5 66 04
 53 9D EA 89 7B FF 43 F9 BB 1C 10 86 13 D9 05 4F
 0E E4 54 27 C9 66 F6 9B C8 F1 73 F0 0F A9 79 BA
 CD 32 8F 3B F4 F0 92 40 A9 0B 2F 1F 39 27 31 5A
 6D 9A 8D D9 5A 6C 16 9E 97 58 C7 64 A3 34 39 DE
 69 90 15 F8 DA C0 31 76 51 DA 1F 0A EB E8 E2 1F
 26 F9 7C 27 E2 74 CD 7E 52 AE 76 5B B2 9B 5C C6
 80 7A B3 F0 09 E5 37 FC DA 41 8A A0 92 D8 2F F9
 31 EE 62 C5 56 0B 98 21 1B B7 27 89 7C EC C0 C9
 22 2B 5C 28 82 FA F8 F8 60 7B 2B 24 CC 62 FF 28
 08 8C 40 0C F6 E9 40 41 F3 D9 1E 75 84 9D BF 4D
 42 4E 8C 1A 11 E0 19 37 E6 60 6E 4C CD E2 BD 16
 1E EF DD A2 8B B2 4E 54 CE 72 8B FF 0E 65 5D 91
 27 D6 F0 1C EF 0D 7E 08 A7 6A FE 18 31 C3 74 33
 B8 30 11 F1 EE 17 66 A2 CE FE 5C 93 5F 0A BF 4E
 E2 45 B5 9E 84 D7 BB 92 9E 47 0A C9 12 CB 65 B4
 7E 9B 10 A0 AA 20 E5 78 5E 87 8F E7 19 75 F7 CF
 0C 49 68 85 10 39 01 91 63 8F 13 37 E9 6F 72 F9
 F5 A6 75 67 53 9B 78 64 C4 06 71 B3 B4 2F 4E CB
 9A 20 8F 2F 80 30 D8 7E F3 CD 74 5A 83 34 5D 03
 A8 8B 27 93 07 F2 65 2E 65 54 9F 41 EE 16 01 55
 53 5F 72 06 12 3D 8C 72 15 7D DC 36 1D 5B 09 F2
 B3 F8 6C 8A 1A C8 6C FD DC EA 70 2D CC CB 08 DA
 2B 6F 4E D1 06 04 57 1C 91 4D CD 0A 7B 31 4D A5
 FE 29 44 08 E1 D7 05 A0 70 81 2C B6 9F 1A 22 7F
 31 AE 07 24 E6 71 90 FF 64 60 17 F2 80 75 4E 47
 67 B7 6D 03 3B CB B2 A9 B9 94 EF 8F CD 85 D6 8B
 84 BB 33 13 AC 08 E7 BF A6 F3 64 23 4B B0 38 65
 90 49 29 72 71 39 9E 6A 35 88 36 05 5D D0 5D F1
 51 94 90 93 6B 0D 48 A6 1D 23 99 BF 10 DE 54 87
 86 7B AD CE 94 0F 7D DA 9E A4 EE 77 6E C3 9E 55
 57 5C 9E 78 E0 67 B1 EB D4 8F 25 AE 6A 5B 94 2A
 AE 10 16 41 9D 7C DC D8 F7 56 D9 8D C5 74 B8 FE
 B8 56 99 18 4E 50 5B 76 E7 9C D9 91 C0 08 1B FD
 F8 F6 26 95 1E C3 1C BB 13 EB D5 74 E3 A1 5C 1E
 C8 44 D9 F2 33 B1 76 3F CA CA 20 1B 47 9B 87 93
 2A 2F D7 D1 F0 75 25 B5 05 5B DA 51 9B 01 1F A0
 E9 86 EB D2 5A 96 F5 6A 87 DB 61 DC 13 97 16 6D
 66 E3 4A 66 00 CA F1 53 D5 46 20 76 65 3D 25 EB
 55 EF 76 1D 87 B9 01 04 77 03 CC AB 1D BB A8 A5
 12 DA 99 92 82 9A 4A C3 9D 63 5F 3D 5C C1 BF 69
 60 8B 42 A6 61 ED 56 12 64 D3 86 E4 EF A0 E4 11
 6C A6 EE BA 23 FE 13 35 9F 52 FA 21 A4 EA 0D 8D
 BC C0 DD EA 92 57 4A 14 D9 4E 30 C9 E1 38 27 4B
 16 A3 A2 CF 52 6A BC 5F 7B EE FB 49 FA 75 11 B2
 B1 FA D3 3C EF 58 4F 82 F7 0A 44 D5 96 13 72 FE
 BD 40 B9 1E 7A 2F B2 89 DA 14 2C 21 59 8B 6C D7
 08 DA 2B 1D B3 4C A9 A7 15 CF 0A 25 B8 C1 52 D9
 D4 9A 31 3E E5 40 55 D6 AC 38 76 AA 9C B6 20 FE
 02 7C 28 97 B6 04 66 DB BC 04 52 BD F0 01 65 A4
 2C 1B 8E A7 81 99 DD 86 5E 1B AA FD D6 21 86 F3
 DD 77 87 03 B7 CE E6 DA 03 DB 19 5C C0 89 28 6D
 59 4C 94 C3 4C 03 2E D6 5E 1C 66 D4 E8 A3 0F CC
 4E EF CB 25 C4 8B E3 98 77 0F 3D 8E D3 06 0F 10
 69 C6 90 EF 74 CE 88 BA 45 33 9F 44 D9 44 65 F9
 69 D0 4A FA BA 73 DF 7F E2 B3 E4 76 5E 9E EF BA
 67 0F 27 18 2E 93 C3 F8 A1 65 B8 43 B3 55 3F 39
 5E 4B CF CF 6E 2B AF 18 D8 D0 08 89 B5 3D 23 ED
 83 23 1F FB 73 96 44 6D AF D5 33 CC 7C CA C9 30
 83 BE D7 41 92 97 52 CE 73 80 A2 29 6C 0D 70 92
 43 CA 45 2A BB 0F DB D1 49 7B D5 43 55 27 C7 A5
 1C 6C 10 35 73 9C 6C 08 91 51 DA 66 36 40 08 3E
 2D 69 4E BF AD EA D5 10 CB D7 F3 00 99 5C 39 99
 44 EB FF 63 C1 AA 95 E5 CC 93 BA F0 60 0D 8F F3
 A4 07 06 E2 89 66 E9 D0 32 E5 8C 94 83 43 BF D9
 B4 9A 6F A4 A7 18 D6 43 E4 B5 13 4A 3A 98 D6 1D
 2A ED DC 81 C5 E2 22 0E E4 F6 C3 EA C1 37 B3 1A
 C7 BE A7 8B FA 97 F7 85 A6 7B CD FA 8C 08 EB 93
 62 B9 E8 17 FB FC E1 91 E0 14 84 CE 0C F5 67 BA
 5F F0 5D 69 9F 63 52 30 EA 7A 4C 03 F1 6C D4 28
 91 E3 95 1B D5 B4 E6 B4 D5 E0 05 0F E7 F8 5E 4D
 65 CE D2 6F FC EC 02 9F 09 6A EB 76 89 27 87 89
 6C 9C EC 66 95 68 79 45 F9 FE 49 6A EA 44 35 8E
 13 A0 54 40 22 FA FA 5C EF B4 40 00 36 00 C8 EC
 68 4E E5 0E 41 6B 67 BE 69 CF C6 2D CD AC AF CC
 B1 E4 27 1E 10 46 57 4B 59 5E A0 F5 89 98 B1 66
 26 A3 63 3A C3 EC A3 4A 9A 1F 8D C0 14 B7 3D E4
 DE 74 0F 8F A4 B9 BA C8 79 41 FD DC F2 EE 4F F2
 91 CD F8 54 FD 13 B8 35 45 CF 1C B6 4B D8 0E 19
 D1 27 6A B6 11 63 16 02 18 E0 A4 D1 79 FA 9E C2
 84 42 29 A7 66 26 C6 03 61 C7 2B 34 74 37 06 99
 C2 16 A0 CF AE C1 FD 36 12 D3 BE C9 50 0A 86 AA
 94 F9 45 39 3E 70 9D 83 9F 88 04 43 0F F5 F1 60
 9F 59 15 A5 6A 37 BD F4 FF 9E 92 6C 5B B0 E0 6D
 B1 72 65 48 7E DE F1 28 DE B3 CE 06 54 3B AA A4
 B7 2E EE EA 49 93 8A 6F 44 D4 DD 12 7C 96 80 F8
 EF 97 E5 7C 61 37 AC C9 D4 16 C3 FC 6B 24 94 EC
 6B 0D 4E 19 6E EA 31 50 D7 3C 20 E8 6B 8C E0 87
 D6 E9 83 98 8C 83 CD 6D FE C9 B5 E3 D1 74 13 AD
 95 05 EE 67 99 17 FA A5 D4 3D CE 51 5A F8 FD DB
 E3 B3 72 73 65 99 E6 4A 25 EF 5F CF 6C 08 D8 E3
 B4 6C AF 77 ED 0C 61 10 97 6A 10 89 50 DA 11 35
 1D 79 EA F2 33 E8 3E 9E 04 47 0B DC C1 C4 39 F5
 22 B3 03 51 F5 7F C1 CF B8 90 ED 46 64 C2 C7 3A
 B3 78 D3 6C DF 50 50 35 45 65 93 FE 8D 82 FA DF
 FB 61 CE 2A AD C0 83 D6 91 2F 08 79 BA 0B 18 E0
 FD 7D C2 19 59 D9 44 81 E7 B0 CD CA C8 E0 10 DC
 A3 51 78 EB F1 9C 65 1E 73 8D E6 29 57 8D C3 8C
 CD E9 B0 58 5A A2 E8 99 14 5B 1D 12 D8 E2 1F A9
 BE 4D 6B 56 3A F3 29 A5 BD 71 02 12 9C FE EE FF
 79 EB C2 1D D0 6A 10 13 93 64 D0 14 EE DE 56 F2
 39 C9 A8 9A 29 82 F8 B7 EC 26 A1 2B 11 BD 76 DD
 F3 5F E9 CF 6C 55 0B 6E 10 A8 09 BC C8 0E EE 4A
 69 C7 86 4B 77 0B 1D A4 C5 74 DE 63 5D 44 94 14
 C8 AE CA 68 13 49 23 B6 97 B3 B2 35 A5 D1 E0 A2
 79 C8 C2 B4 FF 5C 27 F6 7B 27 BB 77 E7 B0 58 36
 5D 61 82 BA A5 8A 51 DA 92 33 A4 AB 64 5C 17 14
 60 AB E4 71 72 E6 96 22 83 96 8F 7C 12 9B CA 93
 DF B2 C2 71 0C D1 81 FD 84 37 B4 74 25 40 E4 8A
 C7 8D 97 9E 7E E3 60 D7 9B 0D 0D 86 FF AE 2D 14
 15 3C 0B BD 8F 3C 98 FD 44 27 14 1C 6C 2B 22 B8
 FE CF D1 FD 7E D7 50 8D 6B 1A FF F6 3C 1E 70 70
 86 80 4D 69 0A 4A FB FB F4 84 57 99 86 18 98 44
 15 1F 8A 3F 18 83 98 CA 78 9D F8 99 50 F4 D5 FC
 E6 AA F9 7E E6 02 44 76 D8 AD 17 F8 1E 6B 0E 45
 3B 20 10 E7 30 85 78 1C C8 05 89 C0 0E D5 BE C0
 81 12 A8 CA D6 23 8F AF D4 09 D0 EB 62 14 77 67
 9B E3 8A 17 C4 B8 B2 A5 88 B8 A6 F5 A4 A9 A3 FC
 DB 76 85 11 D7 38 E3 C2 E1 A8 02 C1 44 EC 0D 6E
 DB 25 74 B0 A7 C1 7F 17 B9 F8 CF 9D 8C 40 7B EC
 1E 1D 41 27 DC 67 7E FB 9D 8A 0A 63 90 94 4B 68
 57 A5 E6 B0 F7 C6 A8 80 AA A8 19 83 93 0F B2 C9
 2E 46 A9 BF 63 50 FB 08 F3 04 99 8A EF 44 37 70
 A9 0C A6 D4 AA 47 C9 80 47 FB 5F 72 E6 B1 A1 C7
 FD 98 F1 A4 EC CA 38 D2 2B 71 B5 7E F4 A7 0A D2
 5D DB 21 C1 ED 3D 67 59 13 C4 F0 53 61 5C 9E 31
 42 DA 7E 89 90 16 ED 95 70 AE 8B 84 62 E4 06 C7
 4B 67 95 9C CF 99 24 CA CF A6 95 0E 21 C3 9E C5
 B1 30 FE 60 60 3F 78 D6 21 03 81 75 47 E5 26 4E
 D7 D6 25 12 9E EE 64 8C AE AB 89 9C 5D 5B D7 5C
 8E DE 0D 73 9C 44 C2 84 E6 4C D5 1F 1F 58 91 AA
 26 F4 47 20 BA 25 B4 66 C7 D9 59 99 FC 9B 93 03
 46 E2 34 F6 CB 4B A7 B9 EA D1 FF E0 53 4D 32 E3
 A4 DF 08 3D C4 61 CF 16 6A E7 04 41 53 BC AE 8A
 D5 25 DF 4E 06 A2 87 82 46 1B 6E 07 2B B1 BB 8A
 5F 72 EA DD 1D E2 AC EE F9 59 A8 3A D6 2B EE 97
 5C 45 95 C7 E0 68 88 56 43 6E 22 D1 81 41 D8 93
 66 44 6F 9F 43 1F A2 86 40 BD B5 B0 67 1C C7 05
 19 64 10 B4 C6 FB A0 A2 B3 FE 83 6F 76 65 6D 5E
 8F 0A B8 A5 D1 6D 01 D0 BE 0F 74 BD B9 71 8A 91
 30 97 0F 44 6B BA F0 F9 98 16 63 24 34 CC D7 6C
 6D 58 EC 4C 7F E0 44 91 F4 58 B4 1C 57 6F 10 F3
 B7 1F 6A B5 BF D5 00 CE D3 FA 5C 8D F1 2A ED 3F
 7A 37 D1 6A AF A5 21 D4 BE 9D 53 D9 06 65 A4 A9
 74 38 05 B8 CE 74 21 6A 63 34 AE E5 CD DB 8B 50
 FF 01 69 1B 9E 6F 62 56 BA 7E 61 37 26 34 C6 66
 56 DF 14 D0 15 74 BC 29 07 C8 02 BB EA 9A F8 CC
 6D CD DF 7A 76 AD 1D 37 34 54 35 78 33 FF 33 E0
 70 1A 09 18 68 FF E4 32 71 6A 0C 9F 29 51 CB 5A
 22 14 0A E1 A5 6D 61 70 F6 92 E6 24 B3 E3 DC 4C
 F6 7B 2A A3 FD 31 D8 FC 91 44 92 F8 93 DE D0 25
 46 F5 03 42 9E D4 14 C2 CD 64 4E 8E 89 81 55 74
 7B 34 EC 94 E4 C3 62 90 AA 56 F0 11 9B FD C8 37
 5B 3D 58 10 36 31 FE 8E E0 59 4F C0 90 54 00 1B
 60 2D 33 31 5F 3A 40 44 29 A6 52 73 19 9E 6D 63
 FF A5 1C F6 62 7E FA 9D 31 7E 70 AE D7 F3 C1 2D
 97 89 8B 10 FB B0 85 08 49 BA 88 A9 0B 8A 20 CB
 CB 97 12 55 A2 DA AB EB 70 9A 5B EE 1A 14 30 29
 FA 98 6F B1 C4 60 E2 1E 91 2D 27 0D 50 8D 27 50
 5D D8 C2 D1 9B 95 58 AB F9 F8 B0 17 3B 0C B3 5B
 46 11 C5 53 3E C4 23 DA C7 1C 64 3E 7D 1A C5 7A
 D5 32 78 D2 A1 A1 1B AB 80 82 EF 89 2E 92 9B 36
 88 E6 FB F2 41 52 50 79 A4 B0 3D DA D3 84 20 38
 B2 F3 58 44 FE C0 33 E4 4A 1B F1 41 85 22 58 E0
 00 AD 2F D3 B7 E2 76 78 E3 E7 26 82 C4 AB 9A 50
 38 18 82 CE C0 97 18 0B CE 23 92 FA 0F 86 FF 4A
 3A 40 BD 70 2A 9A 29 E5 D7 94 07 79 50 55 CC 21
 1F B0 79 D6 E7 B6 62 6C 8A 67 D7 E4 27 73 54 DB
 91 AF C9 A0 C4 1A 63 B3 5E C5 0C F1 59 C3 D7 3E
 88 00 C7 CB 36 F2 1A 6E F6 DE 7E 5B 56 52 F8 CC
 F2 88 8F 85 71 47 B1 0C 75 7A BD 4C 9D F9 35 7E
 2A FD B5 62 51 92 E7 D0 77 DB 09 E5 FF B3 20 04
 28 94 CD EA 67 85 12 98 5C CE B9 A7 B1 CE F1 F3
 F0 B6 33 8C B5 DE FC 2E E8 18 20 4B 85 B4 AF B8
 71 6E 4E 05 72 EF C7 83 81 EA 99 0D D9 0A A7 40
 E1 02 D2 27 96 89 B5 98 35 76 E6 DE 9E E2 68 EA
 27 77 58 E9 58 6B D5 D8 62 B8 B4 93 0B 9F 5A 47
 20 DB CA 1A 4E 7D 95 FA CF 0C 59 34 AA 4A 9E EE
 98 C6 AF 99 13 9B 49 90 FB 97 3C C2 2A 55 65 0C
 61 F1 40 B5 6F 3D 54 47 EE 56 15 DE CA B7 81 33
 CE 95 AC 20 6B 92 D0 DC 29 80 04 0B 3E 9C 01 10
 C6 1A 65 0F 35 28 D3 97 B6 DB 39 EC D8 8A 91 4A
 78 7F E4 C3 55 A5 CF BB B5 F3 14 4E 50 8C E2 D6
 B5 D8 76 20 14 75 9D B2 C5 65 93 BF 02 ED C4 48
 98 03 61 85 2E 1D 18 A7 EC 9C 59 BC DC AC DD 64
 96 D9 38 94 42 E6 65 24 1A 5F 2B 8A 0B 40 6D 49
 DB B2 50 38 08 35 9C 64 97 DF B7 D3 16 99 91 B9
 D2 DE 31 E0 29 83 81 20 F2 3F 94 95 49 4E 19 CE
 93 6B F1 6F D4 2C A1 E1 09 21 65 49 AF 9C 52 91
 E9 67 5A A7 D4 FA BA 73 16 04 33 05 05 EA 34 74
 FA EC 61 DF 0A 35 4D 3D BC 1F B9 47 4C BA F0 5C
 A6 98 70 5A 00 73 DB 33 FE 1A BF 68 D7 F5 0E 70
 A9 75 3B 6D AB A0 BE 40 37 A3 B9 AB 0F A2 0D 0B
 21 00 95 91 18 22 F4 43 D1 79 9C 25 63 A9 AC BE
 85 96 65 E9 E7 D9 80 D5 10 0F EB E8 8A 6A CE A2
 DF 8A AE DF D4 CA DE 13 96 9F 95 BB 3C 2A D4 4B
 81 DC A8 91 57 1F 1E 9C BD EC D3 CA 7B 6F BC 70
 B9 D8 66 37 1A 02 0F B3 9A AF 80 5E F9 58 49 83
 62 57 A2 EB 0E 7C BD 37 1D CE 57 66 8E 7F 3E 2A
 3B 92 4D C9 39 64 CF DD 2E 97 F4 59 01 A5 45 04
 B4 1E 20 73 38 27 FB 0B 21 99 B2 5D 0C 9A AB 57
 BD C4 07 B0 DE 45 B2 AA E3 C7 9F B3 32 FC 51 1A
 94 83 6A 4A 50 AC 8B F8 86 D7 FF EA 14 09 22 05
 B4 30 0B 8C 40 44 54 47 60 5A 00 F4 92 A1 25 A0
 81 4F CF 8F 5A B9 87 6E FD B8 1A 02 AC F2 00 5F
 A3 30 74 14 D6 FC 66 BC 60 4C DC B1 58 B3 26 66
 5B 7C 58 1D 03 5A 00 CB 07 E6 1C 92 94 DA D6 7F
 25 F0 17 15 41 84 E1 C6 31 09 39 94 05 12 DC 14
 E4 17 16 77 48 31 51 E2 E5 D3 D2 39 B1 51 98 2B
 BD 27 34 D2 CD D6 F3 64 AE 09 63 65 86 92 D6 FD
 1A 11 46 7E 4B A8 F3 52 AE 29 BE 3A 05 FE 1D 70
 FA 57 44 BC 3B AD 8D 6C A0 DA 47 B7 2E CB 59 6E
 B7 DC 75 28 2C 6F 64 69 B3 AE 3C AE 6E 6D 20 D8
 E4 FA 98 2F 42 8E 68 7C E6 E9 04 BF DC FA D2 EF
 9E 38 3B 19 C7 B7 05 66 AA 01 2E 49 A7 07 4A D2
 00 0A 80 38 B1 4D F7 CE 3C D8 81 F0 D5 F6 88 7F
 FC 40 78 7C 3A 8C 9D 26 24 5C 84 EB AA 0D ED EB
 10 5C 34 78 08 F3 64 F1 C6 15 7F 3A 9F 77 8B 46
 E4 76 14 56 AD 45 70 24 2C 5E 49 77 5A 5E AF 67
 BA 6A FC 6E A1 5D 6F 55 A6 71 9B 64 44 DF 19 CC
 39 FF 91 8A 4B 89 C0 A0 C6 0F D5 D9 75 65 CF EB
 26 77 22 F8 37 B7 6C 87 A3 C8 7A D6 B4 53 3F 93
 1F 6B 0F 68 63 DC BA 30 3F AA F6 1D 63 BF 40 8F
 0F CC 69 1E D9 36 24 74 B0 65 31 7A 5C 3B 2D 7F
 2D 1A 3D BE FD 76 85 4F 3F 18 27 69 62 27 1C 94
 DF 2D A4 FE 0B 65 55 04 6A 2B 09 CF 95 6C AE DB
 AD 36 2A B5 F5 20 C2 B7 D6 45 E3 30 C9 F9 95 FC
 EA 7B 9C FE 6E 1D C6 1D 6F B5 7A 1F F4 74 3D D4
 12 E8 95 39 3A B2 96 8F 66 A5 E3 82 4E 61 BC 2E
 73 48 F5 0E 35 31 F9 AB 78 C2 C2 A1 3D 8D E5 59
 68 5E DF 4F 01 7C 65 07 77 9C CD 40 B1 EF 06 3D
 F6 E0 AB 77 0F D6 80 C7 2C 8F 66 9D C2 A3 D6 8E
 71 E7 10 54 7E AA B4 F1 C0 57 A2 8A A1 2D 2B 2B
 34 5F 99 D4 32 E9 45 B4 83 76 7A 63 30 F2 14 11
 10 58 98 CC 5F FB 2D C3 50 5E C1 BA 45 9F 5C 7D
 FB AB 06 06 FA 5D 2B DE 42 7F C4 7A 1C 3B 71 10
 27 8A 41 CC D8 3F 76 5D E9 27 0E 15 E5 B1 B5 81
 85 67 02 AD 9C B1 1D A2 62 75 E3 41 8C 43 2F 6D
 2D B9 81 AF 68 8A 59 D5 D3 02 11 B6 8F A7 F6 27
 92 97 A7 71 8F 61 4F 27 CE 8A 60 A7 61 39 7F 8D
 6E AE F2 EF CE 0F AA A0 E5 48 0C DC 47 5E 0D 24
 AE 35 16 B4 66 DB 05 7D 79 4F E3 56 F4 A2 D6 82
 C7 F3 67 72 A2 0B 75 6D 44 22 CF DE 0D 09 3E 4D
 82 42 37 AC 27 FA C6 F4 B3 9A 45 B1 EE 4B 67 38
 ED EB E9 2E CB 2E DD D6 1A 99 2E F5 3F 3A C8 CF
 2D EE 17 DC E5 7D 5F 24 D6 E5 07 D2 60 8C B2 3E
 BB 2B 0A ED E2 17 52 C5 01 1A C3 49 9C BF 23 78
 C4 3A 5E CE 22 8A 9C B8 66 8E B6 DE B9 08 5B A5
 CD 79 EA BC FF 78 04 E6 F1 3F C0 AB E0 24 2A 38
 1C 80 93 48 83 B8 5C C2 72 CC 68 B9 77 68 C3 F8
 6D 59 6B 0C DB DE 9C FF FE 97 BA DF 55 A7 39 83
 4E 30 E5 71 6E 4D A3 30 D2 A6 79 90 3E 21 D5 CB
 78 85 2A 71 D0 C3 64 AB 82 A4 C6 EE D7 E5 29 A7
 C1 7D CA 83 8C 13 9E A5 9B 19 FC 1A 65 4D 1A 48
 2E FF 13 6F 6F 5D 24 5B A1 58 15 BF 3E 18 D4 63
 A7 34 E7 04 E6 B2 0D F6 A1 45 3E 38 64 5B 1A E0
 44 F6 50 B0 8E E8 15 25 91 4C 2B F7 1E 3D F3 7F
 74 2F 09 74 2C 4B C8 6E A4 86 22 A5 A2 DF E7 1D
 E9 3C 16 C6 B0 90 FA 1F DC 33 D5 5B F7 17 AB 1E
 FB 22 5F A2 DA CA FD 45 01 66 BB 98 0B 01 51 45
 78 0F 5B FF C8 B0 F5 33 FB 50 2E 52 4D A4 71 CB
 26 F5 86 8C 34 30 C1 72 18 6C 74 60 5E A6 A9 72
 CC DA F4 71 32 13 81 E3 41 6A D4 F1 1B DB BD 51
 5A 5B 68 AD DE B9 D1 30 88 D5 39 1B EA 31 D9 6B
 2F AF D4 EB A6 D2 76 48 1B 16 9C 1B 54 7A 65 E7
 0B EC AF C9 B1 87 90 D2 3B EA 80 1C E9 72 61 4D
 CD 5F 65 64 23 C4 43 C8 52 BB 66 0A 98 01 C9 DE
 8E C3 19 40 90 C6 A3 91 9E C9 81 54 37 10 29 4F
 BE EE 20 4E 18 2F 19 E0 4E 7D 77 E5 D8 87 65 9C
 81 C1 1A 71 03 80 82 3F DA AA 62 07 CD 43 2D 81
 AC 99 EF 54 73 67 E4 C1 B7 B2 B6 D6 C0 CA A4 C3
 95 9A 29 F7 85 EA BD F8 10 14 38 D8 4D 38 9F 10
 59 0C D3 7A 80 5D C2 38 04 89 D8 56 AD 93 51 8C
 8E 60 24 D3 EC F5 96 68 9D 6F 73 D2 03 36 45 94
 AF A1 A9 E7 35 4C D0 20 9A 3B E1 F1 F6 65 71 7F
 F3 C9 C6 43 1C 6B 6D 68 CD 71 FE B6 2E 18 6B 6F
 AD C8 27 8D 6A A2 B9 FD D6 23 A1 59 46 05 44 68
 AC 25 01 98 10 89 F1 BF 2A 3F E6 A8 F1 D3 D2 72
 E6 4F 6A 8E 4C 3F 79 E9 D1 DB 15 B2 72 55 E4 ED
 03 02 89 FF 96 18 9E 3C 2F D4 44 E3 F5 13 B6 20
 93 5C A4 E7 85 87 D1 F1 8B C7 75 90 07 A3 98 42
 06 6D CF 08 57 F4 4D FA 88 2F 68 71 7B F0 6F 44
 17 CC BE 3C 39 5C 56 EB 9B F9 0B 27 B6 70 01 62
 A9 29 93 5E 8B EB F2 9C 85 E9 47 91 77 6D 0A CD
 9B 66 50 FB 63 28 A4 A1 94 F4 1D DE 5C 66 3A 29
 BC 79 C9 A6 62 11 A0 51 DB 3D 61 CA 11 91 21 6A
 4C 68 68 7D 58 DC 29 AB 98 23 B0 27 7F BA 98 A9
 28 65 73 DE 87 E2 98 F2 A1 0A 87 9B F2 D6 9F 26
 4E E9 C4 D2 47 AD 16 99 B4 41 3B 72 F9 FE FF 82
 8E 24 92 D3 D2 D6 4C 45 03 9A 7D 15 76 BA A5 CB
 15 FB 4F 59 11 2D 0E 3E 56 65 06 88 E3 F6 AD F9
 48 5E 16 61 44 C9 DB D7 07 73 70 3C 85 2F 50 7A
 A8 D7 DB 44 FB B2 28 A9 D0 EF F1 F5 AF AA 2E 54
 7D D2 BD 41 B0 2B 51 AB BA 33 39 62 EB 5B F8 91
 89 07 8D 89 C3 6C B1 DF C8 13 95 B6 33 73 5F E9
 C6 11 52 FE 1C E6 27 85 4D F4 CA 79 AE 07 6E 3D
 F2 51 48 CB 68 98 25 17 B3 3A A9 98 E0 17 BD 28
 71 AB 86 7A 07 60 37 4B 6F 76 62 39 C4 EF 17 74
 00 A6 01 E5 44 FF 91 4A 63 AD FF B9 3C C7 DD 90
 75 88 8F B2 36 F4 85 82 59 44 DA 1A A9 DA FD 7B
 73 81 60 4D 4D 8C 0A FA FA CE 6D 92 6C 39 3F 42
 38 E7 07 0D 68 E4 80 C9 58 34 59 CF 4D 8B FB 33
 66 5E 76 F4 B4 55 60 C7 3C 06 30 74 96 0C 7C 42
 0F 60 7F 1D F4 04 D9 51 D3 98 55 31 82 67 1E 4C
 A9 C6 5B 61 14 38 B0 A8 F1 5B D3 2B 72 8E 57 F9
 CA 2D B4 D2 E0 9F 66 46 CC 64 9E 94 27 18 34 DD
 F3 D7 C8 CB AB EC 73 C5 50 A6 9F E3 3E 19 B4 74
 DA 62 AE 5F 37 B6 C8 33 58 A2 9B EB 30 E4 5B CA
 0F 21 A1 A7 01 6C 4B B0 0D 34 06 E5 D4 7B F1 E4
 1B DD 36 89 C3 10 6A C3 8C 7A 29 65 19 BF 0A 78
 45 E2 A0 59 32 1C 78 02 8F 05 F1 CA ED 53 F5 D2
 86 4E 03 E1 72 49 94 58 C0 80 71 C5 F1 8E A2 80
 93 E8 97 DC F2 5E C6 38 68 5A 69 D9 83 D1 CF 37
 E3 D9 C2 4A C5 F3 A3 52 63 32 5F 92 15 B2 85 B1
 2B 71 92 DC 63 2F 2E 5D 5C 8C 9C 77 65 52 D5 FB
 D8 DB 72 9F BF 95 BA 30 32 AA A1 43 AD D5 A5 2A
 51 35 F0 FC 87 25 03 11 42 D5 D6 0E B1 3B D3 0D
 EA FD 21 FD 34 C7 64 49 57 E9 57 7D 19 FE 30 97
 2C DB 26 13 17 8A AE 48 0D 78 D2 D1 5D AF EA C0
 AA C8 AB DD 65 71 92 01 89 9F D8 FE CD B3 D7 92
 29 A2 9F 78 A9 6F 7C 81 73 38 13 19 01 E6 7D 78
 CD 73 1C 80 A8 02 E1 CB BE F4 F9 E7 19 AF AE DD
 96 16 87 F6 2A 7C 78 95 4C 44 FE 26 43 C0 D4 26
 5C 51 E5 60 2A 2B 1E B6 AA 6A 1D BF DF 31 E2 01
 C9 D0 04 C9 99 DD A8 57 18 87 D5 25 32 D2 CB 0B
 F0 3D CE FD 63 7F 94 9E 2E 6F 8B 6F CC 35 C8 55
 FA 22 0B 56 1A 1A 74 16 E1 DB A3 34 DB 48 62 9E
 5C 36 7E 0B C4 5C FC 2E F7 9D EE 9E 2B DE 6F AA
 EF 8C 8B 65 09 30 5A 63 C1 A6 A7 8A A0 7F 7C 53
 E0 C6 2C 2B 2F 1A B5 D0 F4 0B E6 0C 35 E7 F4 F7
 94 6F 51 47 F2 47 01 55 E9 96 D2 13 00 1F F1 64
 A1 E0 E3 FA 5F 41 69 A9 36 37 D2 DA B6 9D 53 E6
 4B DF 80 EA 8B 5F 2E 48 AD C3 5E 85 CA 30 71 8A
 36 4D 89 88 4C 19 C5 48 8F F3 6C A2 2A 5D F2 5F
 FE 6E 25 30 F2 92 8B EA BB C9 B8 E7 61 D4 8C 07
 69 CE 05 18 6A B4 01 81 11 AD CA E8 44 2C AD 77
 9D BB F4 5E 10 D4 F6 E1 1E 4B 02 6A 21 5F 52 DF
 28 D2 04 26 7D 9B 8D 6B 2E 93 B3 86 FA 42 55 38
 EE 2C 9B 63 79 61 21 80 46 C7 47 0C 8B 7D E6 0D
 17 D8 08 40 02 A3 33 9A 02 0F 12 DB B7 A5 2E 71
 58 F1 F1 95 85 00 98 A2 1F A4 72 C2 1B AB 31 94
 60 7C 5C F8 DF 71 00 64 D3 A8 01 0E 56 FC 91 9A
 88 61 F9 08 E6 19 4D 37 9A F7 E4 44 FD C7 59 D1
 E0 A4 A7 58 C7 81 79 91 54 36 64 FF 81 80 43 75
 20 6C 73 C9 54 38 51 10 4B 5E DB 67 26 F8 B6 4F
 C6 B3 72 67 F9 75 6A E7 96 2F 3A 89 51 64 19 50
 E4 B1 D1 C8 7C 6F 31 A2 8C 2E A6 3C 74 BE D7 8B
 CF 44 57 71 16 EC 35 15 6D 3B 5E 94 28 C6 B9 44
 39 83 AA DA BD CF 2E D5 CF F5 AB F7 AD 96 B4 1A
 00 D7 F4 32 4F DF 43 DE 3B 27 8B B8 01 71 BB 22
 B1 D9 60 13 96 C4 58 F9 59 A5 1D F6 EF B2 E4 15
 E7 0D 0E C2 7D C9 67 48 0B 3F C9 F8 97 6D 0F 07
 F7 BB E7 C1 8A 14 76 54 1E 6C 67 62 81 64 C4 06
 FC 6F 72 AA 0C 3F 54 31 F2 DE 76 BE 1E 15 81 39
 94 52 B5 38 C0 37 9D 2D 0E 07 D7 BA D0 35 CC 66
 67 29 62 F2 54 5C 54 5C E6 D3 2A EC 78 3A 25 EA
 35 E8 7F A2 32 38 11 B6 FC C0 56 45 22 08 28 65
 DC CF 91 47 17 C9 C4 1B 19 66 17 F1 E2 0B BA 46
 91 10 6B 6C 00 BC 9C 9E 6E 20 8B C2 3C 2A 23 31
 0A 78 AC 7F BD BE 39 B3 50 EA 17 ED E2 1B 83 52
 4E E4 A6 9A EA CE 1F 82 4E D8 AE 41 24 22 8B 26
 20 1F 4E B8 64 C2 D9 AC BA 51 FE 52 FB F2 F0 77
 5B 1B 82 D7 27 56 44 99 66 CD 04 EC 88 BF F5 A9
 AC 3D 57 3A 4A A3 06 D1 17 F1 F1 EA 70 4E 74 2B
 0A 60 AA A1 B2 6E 6C 63 72 A6 12 80 61 AD CA F4
 A4 E1 9B AE EB 3C 36 82 E4 AD 41 75 5C CB 5F A2
 EE D3 09 9D A1 96 19 CF 2D FF 48 35 18 BB 5B B5
 9A 68 FE F2 D2 7C 92 77 3F 5B 45 77 E3 12 A8 03
 E8 40 A9 63 41 34 60 AB B9 C9 D1 94 84 93 6E 02
 09 F5 3B FE 2C 5D E9 24 C9 66 F7 84 70 0A 62 53
 3C 6A B6 1B 42 51 82 14 1C 6B 08 31 2A D3 F8 2D
 60 DB 06 41 DE 68 AC 4C A7 28 4A DC 4B 88 48 21
 89 20 0D A7 4F 0C 47 0A A7 D2 81 F6 54 04 D0 00
 12 E6 C3 54 D9 54 68 75 5C 9B 58 CD 1F 00 5D 1E
 1F 57 8B CF 0E B6 DE FF AB 0A 1D 7B 06 12 6D 7E
 C0 DC AE DF DB 14 25 E1 E0 CB EB FD 27 4C CD B5
* End 3200955575 3915434987