* LTspice Encrypted File
* 
* This encrypted file has been supplied by a 3rd
* party vendor that does not wish to publicize
* the technology used to implement this library.
* 
* Permission is granted to use this file for
* simulations but not to reverse engineer its
* contents.
* 
* Begin:
 AF 11 D2 D6 8D EC C6 49 A2 30 D6 5B E9 91 87 C4
 F5 A8 17 A1 D5 81 06 84 9B 83 59 02 DD 3A 2F BC
 0F E2 85 34 F3 0B 73 14 46 BC 73 54 68 32 E8 2C
 7A 6E 66 D7 96 73 ED A7 12 41 58 E6 2C 93 E3 B8
 AB EF D1 86 3B 0A D9 5B C8 A7 0B AC 96 23 39 A1
 1C 4F 44 37 EE 5B 9F 30 83 2A 0E 19 53 BC 4A 7E
 10 8E 85 38 E3 DE 9F 53 5A 2A B8 37 8B DB B8 C2
 2B AF 6D 0E 84 34 9C AC B0 63 F4 34 C1 3D FD 4B
 FD AB 9F 08 C9 EC 82 43 F3 0C 9C 5C C3 BC 27 04
 B4 DC 1D 8E 21 CF F0 C8 1B A3 CE 19 55 4D F0 F9
 0F 12 0E A3 1D 9A 63 20 56 45 03 46 9E 66 1C 30
 F5 3E 1A A4 CE D8 3A 74 B8 3C 9E 39 B1 59 39 C2
 BD E9 A6 A5 90 BA 4B A6 28 67 F5 FC CB 37 EB 3E
 BC 35 93 BB 14 35 81 7D DE 42 A9 A0 70 89 DD 74
 DB AB D8 18 20 D2 AB BD B5 EA 8A 7B E4 B8 D9 15
 AC 33 EF 8C F6 3D 38 E2 DF 0B C4 01 51 98 B4 4A
 FF 1F 76 3C DD A5 50 F4 91 48 FB 7A 6C 9C A5 25
 DF B3 05 3E B7 B9 0C D9 A1 77 5C 7F AD 30 7E 32
 CA 6D F9 F8 55 5F FB F2 5B 85 BD A4 56 A0 D6 6F
 CA E6 64 80 A4 C7 6E C3 5B 19 D3 FF 80 71 76 AC
 C1 76 46 7F A4 94 15 9C E2 65 7D CA 7F 23 28 AD
 F2 6A FE 17 55 FC 1F 8D F5 FC F1 79 80 30 EF 97
 6D 81 5D E1 CA 0B AC 40 BE F3 EC AF A3 F1 46 7B
 70 7D D3 4C 0F 93 CD 6B B4 8B 52 CA 81 C3 F6 08
 2C D2 A0 E8 4F 7E E6 8F D7 07 28 90 0D 50 D0 E1
 E8 7E ED B0 B8 69 1C 73 9A DD CE 05 F9 6C 84 C5
 DC 6A 77 05 5A 07 18 96 FD 43 5B D8 22 29 15 85
 EF AA C5 92 5D 4D A5 0E DF DF 1E CB 19 5C B5 72
 42 C1 8F E7 A6 3C A2 DF CC EB 93 37 3A 54 2E 58
 B7 D5 BD FD D4 D9 72 26 D3 B6 A2 2C C0 11 D8 EC
 BC C8 A2 3A 3A 6A E1 4E B3 A8 39 08 78 3F 77 D3
 FB 64 3F 10 34 4E 42 6D 20 82 25 21 AA D3 86 21
 2C 66 02 99 62 BF F1 18 0E 73 E3 95 2E D4 9F 96
 E3 C2 C6 DA BA EE F7 99 E0 0B F9 E4 7C FB CB 38
 A6 55 55 7D 27 46 71 67 1B B3 38 8E 4C 5D C1 15
 77 14 82 47 37 3E 67 9B C6 A1 ED F3 65 5C 1E 73
 B5 A7 AC 48 41 A6 4F AE C1 8F 97 F2 D9 93 26 7B
 27 4F 6B 4F D9 ED CD 63 BA 3B EF FF 21 10 09 93
 D2 81 1B 3C 09 A0 D2 3A 4F 37 AB 4A 19 48 45 62
 EA 96 BF D3 88 9D B2 71 18 E6 CB 9A AF 95 C0 E2
 21 77 F7 D8 FA C2 BD F5 87 06 1A F8 DD 01 14 B1
 1E C5 D1 D8 70 5C F0 4C 40 D3 0E 67 71 59 0D BB
 DA B1 F7 B3 AF 96 0F 24 65 3F B1 E7 0E 37 65 C4
 2B 3D C8 74 0E 5C 5C AA 6E E8 31 35 92 1D 29 39
 E3 05 C6 97 A0 2C 21 9C 0F 4F 49 B8 73 5D 8C AC
 3C 5B D6 34 F6 9D 90 21 77 6A 5E B3 B1 6F AE 5F
 28 B6 88 39 8C 01 77 9A 69 CE C2 39 36 7F 9F 24
 A8 B7 A4 8D B9 22 0D 02 4F 17 13 6E E7 82 D6 A5
 5E 3D 59 DF BC 27 44 1A 27 EF C1 3F FC CF 9F 29
 D5 AA C8 56 FC C4 16 7F 51 7D 1A EF 7C C4 EC 68
 BD 6C EE 59 81 2F 2F 20 FA B9 EC 48 95 DC 7F F0
 7B B8 61 0C 2A 05 F6 BE 66 C3 64 DC 31 18 4A EF
 F9 7D 4B E1 D4 02 14 22 A7 93 72 46 01 68 EB DE
 49 5A DA E9 75 E5 5E E0 28 CA B5 CF A7 09 9D AA
 49 11 1B F4 DA B0 DA 3E 52 AE A4 C1 94 11 61 B8
 3F 44 A9 7C 2A 0D EB ED 9A AB 35 77 F4 5D D5 7F
 8B 4B EF 46 8C D4 84 69 6D 90 97 5F A4 20 77 88
 87 AB B9 8D C4 37 F5 CC 60 95 F1 46 61 8D A5 55
 18 88 E3 F9 68 E4 67 D7 A0 68 4D E4 18 81 0D 5D
 18 B2 35 E9 76 6A E9 14 AC E1 FD 0D 69 D3 04 1A
 7A A4 6C C1 75 5E 1A AE E6 8F E2 1E E4 7E B2 22
 01 C4 0A 5E F3 29 2A 3F 7D E7 F7 D3 6A E6 5F 9E
 9F C0 1E FA 9E 3D 1E 8D 9C 20 E3 FA 26 76 2A 23
 D5 AF 65 9D F7 0A 3E 36 1B 24 99 55 4A F2 17 4E
 00 E0 68 43 D9 DF CC 47 A3 01 3F E8 35 E5 0E 97
 84 FB AD B0 77 36 32 80 CB E5 2E 16 97 D7 E6 13
 8E F7 92 B3 25 1E 21 3F E0 A9 34 CB 42 1F C0 60
 C7 72 1A FB CF AB C2 C9 50 CD 0D 31 6B 8B F7 FB
 26 18 9B 8B 72 42 6A 1A 08 4D 07 91 0F 2D B8 17
 9D A9 EC 20 66 2E D5 35 0D B6 6D C2 53 26 79 0A
 BE EA E0 2A 92 FC 51 DE E7 13 0F 46 06 4F 5E 64
 41 39 32 20 87 9E D5 92 72 1F 97 78 85 2A 7F 35
 D4 97 88 DA 4A 54 3C E4 21 B1 1F C5 96 59 95 D6
 84 C4 3F EB 72 7B E2 A3 E0 47 97 3D 7C 64 F3 14
 CF 18 F1 8A 88 7C 20 76 08 46 6F AF 1D 90 6D 92
 E2 EC A6 FB 5D 1B CC 95 B3 87 D2 E5 27 2E 9C 1A
 D3 E6 DA B8 D5 1D 8A 7A 8D B9 2C 4A DC A9 B3 4C
 84 71 5E 0D 2C 05 8D 7A 37 3F 36 70 EC 9E 24 5D
 66 85 97 B3 54 8A E8 53 CF 75 CB 62 25 AB C8 43
 D5 66 BA 0F 65 8A 8A 4C 38 B8 52 C1 A5 E8 5E E6
 64 BD DC 91 41 DB 7D 69 79 56 EE C9 4C 8C BB 61
 64 B7 13 17 CE 42 5A F4 8B 02 86 09 31 FD A8 3C
 4E 05 CD 41 EC 43 DF 49 4E 57 01 E4 58 82 0B F3
 2D 0A 28 A2 45 10 9E 7F 90 85 86 19 9D D6 BE 4D
 53 FF FD 89 64 49 3A E6 11 7E 62 A4 12 42 D8 3A
 6B 7A 80 F9 29 4A A8 5B 99 92 3E A1 79 FB 52 B6
 2D C0 4C F2 10 D3 3D A8 E0 DC 79 B3 1A BA 88 40
 E5 00 C1 CC EE A7 CC DA 55 F8 6B C3 52 A9 98 66
 0D 90 53 FD 95 08 7C CF A6 67 C9 3E 13 AC 67 EB
 F5 6F 85 C9 C3 2B A9 A1 B2 3C F7 79 9B 5A B2 17
 9E 4A C7 B1 18 F9 1E 2C BA A4 8A D5 1E 8B E5 3B
 35 4A AB 4C B0 8C 44 E3 A2 CA BB B2 A1 BF A6 44
 87 60 17 EE AF A7 24 71 23 96 0A C1 42 D0 A5 2F
 44 14 7B 69 50 09 CE 9E A0 7C 06 D9 8F C6 00 BC
 35 AB 94 D4 21 0B F5 0C C3 B9 F5 B9 0E A6 F4 0A
 BE 4F F6 0D AB FA 97 36 72 00 F5 9D CE 76 9E A4
 50 B5 70 B8 41 9D 3D 33 5E 66 0C A3 35 58 F4 18
 9A 02 52 C4 1F 80 F2 56 7C 37 C4 11 DB 4C 41 D4
 F1 3A CF C5 B9 70 18 AB 4F 59 1A BD 09 31 69 EF
 3D 45 5E A6 D5 15 2E D2 6B AA 72 C8 F3 2E 97 B3
 FB 32 73 5D 0F 56 CA 89 38 4D 37 1C 4E E3 D8 2C
 30 CA 29 F4 B9 52 33 88 C6 28 6F A6 17 FE A9 8E
 9D 48 45 33 F5 D0 62 C0 CD 58 50 FB 65 4F 36 38
 95 0A D5 F1 6B 4C BD 78 A2 78 99 55 0F AC 22 AC
 90 4B 6C E5 57 5D 88 13 AE 7A 98 DD B4 79 C0 AF
 EA 35 4E 83 B1 23 F1 18 D1 E3 13 7A CB DF 0D 80
 9F 95 40 72 1D C7 F5 62 6C D1 C0 9D 1B DE 05 CB
 E1 3E 98 BD 9E 84 ED 44 62 EC 7D B9 00 D2 EF C7
 B5 80 45 DC A9 46 8F E0 25 E5 9A 27 82 5D 77 18
 18 88 3C 71 52 BE 1A 44 BF 63 B6 68 78 B8 AC FC
 10 8D B0 5C 49 DD 66 C8 35 DC 90 78 20 FB 03 22
 44 8E 39 53 A5 D8 30 87 AD 4F ED C1 6D C1 2F 54
 3E 9C C3 8B AE 38 D5 C6 04 13 FD 95 E7 45 D6 67
 53 95 BD 88 8D 4E C5 3C CA FC 0B 2C 04 4D 97 42
 40 AD 6B 0F CD 60 00 8B 97 40 B0 2F 1A 7F 87 DB
 95 51 EB 33 69 C0 FE BA 07 E6 F9 0D D1 35 C4 4E
 9A BA 11 6A 81 3B 64 00 51 A6 F3 26 56 7F A6 17
 55 39 04 39 83 0D 2E B4 70 92 BB 0B 51 6A 12 23
 E4 D5 E3 66 9F EB 96 F1 DD ED FD 65 67 74 C2 43
 6B 57 A9 5E F3 F7 D8 EF F7 53 B8 44 DB 97 8C D0
 A7 EE 42 69 90 56 16 30 2D A4 EB 70 4A E7 9B 52
 6B E1 79 79 C7 43 13 44 8A 88 80 3D 95 37 CC 49
 80 1B 3C E3 43 9B 2A FD 82 D8 98 C9 D7 A5 89 34
 8F A6 BB 87 B2 A3 D4 2F 4F C2 E4 A2 A8 C2 95 3F
 EB 31 97 E9 D8 D2 8D 5A 8B 64 64 2E 24 81 AC 3B
 64 E7 4A ED 5E 46 F2 7C B4 F6 64 9B E4 0E 24 88
 70 8B D0 7C 10 85 00 7E 75 14 F9 37 45 61 5C BD
 81 F6 B5 E4 94 D0 84 B3 5B 47 EC AA 33 55 5D CE
 3D 58 30 ED 33 C6 C6 63 C2 59 1A E0 5C D4 51 FC
 0B 72 FE 75 35 BF 0F 28 D3 41 06 1E CC AD 1D CE
 C3 E5 4E ED 14 C4 1B 4A 74 80 8C 52 37 62 54 0A
 76 C7 AE 4C 0B 14 1B A3 22 CC CA B3 D3 C4 72 9D
 3D 1F C6 06 EA 92 00 A0 5A C0 BD 7B 05 96 63 04
 3E A8 90 DA AB FB 9C 5B 73 4D 77 DC 98 B4 44 37
 7A 68 14 8C 1D E6 00 E5 FE A7 1C A7 86 C2 FC 7D
 0E 34 7F 97 9D A1 8D 31 B3 A4 F5 A5 30 7B 52 BA
 2D AF 8A 19 29 B2 8E 4A 50 CC D8 FC 74 2A D5 97
 57 CC 2B 6D 74 67 81 83 DA 56 8E 24 C0 9B 66 D9
 10 74 30 90 DB 6F 39 EF 97 72 CD D2 76 67 84 AD
 C1 93 23 71 0F B0 22 8A A3 BD 4F E6 9F FF 8A 96
 CD 97 1C 2E A5 67 B1 AF C4 9B 34 CA 6D 88 3B 0D
 0C 87 F8 36 AB 85 66 DE EA 2B 03 CD 5E 3F 10 4C
 82 CA 2E 32 FA 37 BB FD F6 6D A6 89 38 9F 9E 68
 3D 88 6F D5 6E 63 DE 1B 3B 8D AC 26 B7 DB B1 CF
 4B 20 06 C9 FA AF 15 C7 12 10 B4 A8 FC CE C4 3F
 47 4C 02 A9 8A BE 73 F0 D3 51 9D 7D DD 70 41 67
 EE 4D 87 81 ED 20 84 23 EA AF AA 6B 20 F3 58 FA
 12 54 C3 4F 1A 19 51 55 95 A0 A3 D8 A6 27 BE 9C
 63 E9 8E 0D 4F 4F 87 E4 69 3B 2D D4 31 17 28 55
 86 B5 09 14 53 4B 3C D3 D7 6B C2 15 38 90 13 E1
 46 21 A9 27 EB 69 4D 72 3D 05 52 DB 8B BD B9 57
 77 1E 64 36 8F 5F 4D 60 11 38 8D B4 3B D7 AA 40
 36 4D E0 8A 5C A5 33 94 D9 66 76 EB 78 3A E7 96
 8D C8 A1 F9 06 69 22 AA 50 71 B8 60 A6 33 64 C7
 7F 90 03 FF AB F7 D1 83 71 0A CD 8A 3D 51 4B C6
 4D 55 01 21 49 D7 D0 DF 3B AB 24 0E DF 62 98 6A
 44 FD 7C F4 38 1C A4 5D A3 DA 4C D3 CD 1E B7 FC
 D4 CD 9B E4 2C 7F AA 8E 21 77 6F 62 0B 27 31 2C
 7B 08 05 06 53 E0 C5 5C A9 6B D5 6E 4A C7 6D FD
 B4 B2 B1 0B 5D 86 4F 77 CB 5C 5C 11 58 C7 64 72
 14 92 14 5C 87 BA 3D 78 27 9A 24 EF 5F 67 53 CA
 97 DB 24 D0 58 A6 C2 B5 1C A1 29 08 91 A3 65 DF
 17 E7 31 BF 7C 7D 11 CE 5F 92 F5 72 09 67 B7 06
 81 2C DF A5 C2 D1 6E D9 CD 3B 30 FC 20 E4 F1 EB
 C3 23 69 B6 AA CA 80 02 44 79 57 5A 2B 60 FE 99
 AD E9 62 77 D0 46 4B FB 0B A2 9B 77 1E F9 2E C9
 05 39 8C 3E 79 AF C3 BC C1 A1 E1 89 4C EA A0 09
 C3 B4 F2 08 B0 20 9A 43 B3 8B 61 4D 17 B0 A7 AF
 AA 96 3D A1 E2 BB FA AE AB AB 3C AE 4E 4D DB 2A
 A9 90 04 CB DC 1A 6D 3B 54 49 36 23 9B F9 95 50
 B5 05 77 CA D4 75 D5 B9 86 52 8A 4F CC B8 D1 D6
 33 FE 29 F6 C1 36 98 57 58 AA CA FA 36 10 60 C7
 E3 06 7B 69 DC B1 69 CF 12 47 CA D3 00 0F 5C 59
 28 38 3B 87 0B BC 43 66 C6 95 D5 A4 28 3C 2E 59
 3F 24 02 2C 6A FD 12 3B 41 34 04 2E EE 8F 20 79
 2D 1E 03 E0 56 4D CA 11 A2 C3 D0 C3 19 1B DA 6C
 2F BE F8 A8 94 3C 1F B2 04 D2 45 DB 7C 26 29 CE
 0D 75 7A A6 77 95 B2 C7 1D 39 AE 5F 66 33 3C 5D
 62 CE 65 B9 70 17 25 C5 A7 DC AF 6D 59 A0 66 E4
 12 34 DD 3C A8 FE 2F 7D A4 F2 87 96 AC 94 4B D8
 56 EC A2 42 C1 06 B3 AB DB 09 86 B2 DC 05 15 EB
 95 D4 D2 F9 FA CD 8F 53 A5 22 E1 81 6F 96 86 E0
 DD 53 E6 33 63 5E 84 1C 98 2D EE F1 DA FE 66 00
 5E 8D 2B DC 7F CE AA D5 29 7D 65 F8 9B AC AD B7
 A7 EE B9 0D 4D CC 83 65 36 D3 18 16 16 95 E3 EA
 27 82 66 84 41 0D 38 B5 ED ED 01 C9 EB B9 E2 C1
 A2 FC CB 0D B5 CF B5 39 39 7E B9 67 99 18 BF 70
 07 66 91 DD F6 7B 97 EC 00 C3 EC 2E 6D 7A 65 DA
 2E 77 29 B8 39 29 55 2D 04 8E 4C 1C 84 5C 34 A4
 28 51 92 6F 0A 7B 7F B3 F5 94 61 07 1A 76 DD 56
 C0 CD 94 9C 39 C9 A4 EE 7F 77 93 81 B6 0D 8C C1
 3E 10 32 1A 15 03 D5 D4 57 C6 19 2F 4F EE 0D 05
 FD 2E E4 4A C6 46 5E C8 F2 AF 24 97 02 34 D9 42
 38 06 6B D2 AB 02 45 F0 A6 C1 72 48 56 91 B1 CD
 19 74 CF BB D4 7B 64 EA CD E5 C4 7B 8C A9 7E 30
 7F AE 70 44 C2 08 B4 63 46 B8 5C 90 53 5C 69 56
 97 D7 CD C3 CD 30 AF 88 53 7E 95 89 AA DF 1D 22
 18 D4 6A A6 E0 ED AA 29 0E 36 A8 CB 35 B0 BA 8F
 91 3A AE 50 79 4B 42 C4 37 E0 F5 33 E0 BD F0 90
 89 6A C5 2B A6 84 40 6D 8A EE 17 23 D1 C2 52 B2
 78 E8 3B 08 A2 D7 C7 DB 65 EC B2 9E D0 3A 9C C5
 AE F2 5D 40 98 63 92 82 00 31 08 D8 41 DF BA 51
 43 CF 3C 2A 61 4E 0D D1 C4 BC 9D D4 F8 17 E7 0C
 69 AC D4 7D 14 18 E3 45 81 8B 02 77 2A F9 69 88
 C9 80 C8 41 19 E4 6D 4B 0A 3C 44 6A 3D 74 47 24
 EF 41 5E 5C C6 94 33 6A 43 89 F6 3C 44 CE 32 35
 70 7E 26 FC 01 8B 78 A1 87 DD 93 EE C5 F0 08 FA
 CB 51 2D 33 8E 86 FD D0 6D 89 4D D1 F2 16 67 43
 E3 B9 FD D2 92 DA C9 0A 87 A6 7F 14 3E 7E EC 44
 23 98 32 4F AD 8B 4E 4E AE 15 F1 B7 AB 58 A1 BD
 67 31 EE 83 73 C8 F1 32 A3 15 D4 26 5B F7 9B 90
 F8 5B 06 F3 0C 6D 77 CA 2F 94 39 EC 54 D4 F2 2C
 CB 12 2A 8D 42 E4 AB 7D 2F DE 48 B7 CE 5E 57 40
 7D 6F 9D 14 93 7E 83 5A B7 2D 0E CF D9 7E 6B B5
 08 5E 84 87 D5 26 58 15 F2 11 BA 2B BE 3C E9 B4
 4C E6 FC F3 4F 60 36 41 08 10 8B B8 ED D7 ED CF
 32 15 98 C9 88 A4 D8 F5 B3 F3 C3 2D D7 46 76 2D
 43 10 38 C2 71 CC 20 4D BA C0 50 39 29 C2 8A 5D
 18 60 29 DB F8 66 6D E7 C0 F4 D3 25 4F B7 88 A6
 A6 33 4B 64 55 44 6C F4 3E 67 7D A4 83 1F C5 88
 2C 24 24 51 6A E5 55 85 BC C1 DA 76 AD D0 23 67
 A5 7C 95 7F F1 4F 78 FC 40 1D 11 04 13 F2 F1 FE
 99 2B 84 E5 D6 BA A2 0A EE 63 C5 13 C6 42 3A FC
 87 0A EC 80 4E 9D 54 C2 60 80 47 4B B3 B5 3E 54
 DD 67 23 28 C0 65 23 0E 37 D8 98 73 31 C4 99 EA
 26 0F 1F 5D 09 24 F9 78 F4 77 D2 CE D6 64 47 32
 6D B7 C3 41 5C C6 2D 99 95 93 CB CD A2 F6 7F E1
 31 99 39 D1 4C 8B 30 AF BB FA 01 89 AF 68 C1 D7
 9C F1 B4 38 E0 D2 5E EA 98 D1 05 2C 62 E5 94 CF
 F2 47 08 A0 32 9B 84 08 8F D1 37 03 4E E6 14 73
 D0 9D 9F 13 72 33 AE 35 38 EB ED 51 B3 96 99 A6
 10 BD F6 8C 91 F0 AD DB 46 5D 70 7A 28 29 B9 CA
 EA 5C C5 A5 4F 35 30 57 B8 4B B6 0C 8C BF 0D 4D
 40 BB 5C F7 28 76 D9 8A 1D 86 0D 06 2E 2B A7 BE
 A4 59 51 7C 99 6E CF 07 C1 2B 69 C3 30 3B 82 F6
 61 C4 9F EB 49 4A 3B 6F CA BA 77 15 E3 FD 1B 75
 B3 0B 55 37 C0 45 9D F3 3A FF 8D C8 2E 47 67 E0
 A4 60 10 49 A2 A7 86 9C 46 1B 81 46 9A 69 04 9A
 1B 0D 1C EE F1 28 C7 47 D0 CA 95 BA 31 F0 84 F3
 1A D6 47 EC 5A 4E F4 01 18 9C 0B 0E F2 E2 76 F7
 08 D7 53 5D 3E 69 2A 2E 00 0A F9 43 5D 8A C3 3A
 36 3F 77 27 09 EE 06 89 D4 A3 70 FD B2 19 EB 9F
 B1 75 4C 8F 8C 37 8D 0C 75 A7 9D 58 66 E6 64 2D
 9A A8 8F 4C 43 AB 51 8F 3C 4D 32 CC 7E 17 B2 95
 B5 2F 22 AB 03 F8 52 6A 76 9A FF B4 F9 07 D9 FF
 6F C1 71 61 81 6D CA 49 C5 3A FC 26 65 FC F3 C8
 63 D1 F9 68 A3 D2 F8 B3 89 18 A9 F0 9C E2 2E B4
 6D 0D EF E9 7E 93 BC 78 A7 66 59 79 44 35 19 71
 73 AB 1D D9 E3 A2 34 02 2A 7F 67 4F B6 E5 DD F7
 A6 CC 19 71 72 1C 03 69 18 7A 6A 3B 46 39 60 7D
 7C 58 AC 64 A2 BA 02 85 7D 87 27 6E 1A D7 6F 81
 49 DB 87 19 0A D6 35 B6 CC 8A 5E F4 C1 0A D8 7F
 CC DD D8 25 DD 21 08 28 C1 3A A1 77 07 7F AA 00
 E4 44 A9 FC AC 69 11 AA 53 43 97 7B C2 6E 70 2D
 04 0D 2A 31 1D CA C7 86 BB 4A 62 D5 4D 39 34 23
 DB F3 C3 07 5B 6C 76 0D DC 00 79 44 BD D0 F6 E6
 CB 29 84 E7 67 34 79 4C F8 4D 3C F7 C6 08 0C A7
 8B 77 9C 98 0C 4F 89 2F BC C1 64 07 83 43 E1 AE
 EA 56 92 18 2E 5C B2 63 37 C4 E1 E7 9E 08 56 76
 FB 1E 67 1F 82 50 4D B3 9D 39 D6 C6 38 89 66 8E
 A2 4B 8B 3F A7 E9 96 14 EF 34 21 33 8C 3C 67 42
 E2 D8 27 B8 9C 08 E1 BA 35 A7 0C BC 97 30 84 A5
 B9 28 98 58 8E B0 D0 6E F8 E6 62 AB 29 66 E7 DE
 C0 91 E2 F5 87 5E B2 68 51 83 1F CD 05 67 46 36
 B1 B9 5A 42 61 C7 EF 7A A8 89 2B D6 8A 9F 1B 97
 6A 24 E0 0C FC 0B 6C 85 24 A9 83 4F A4 AB 3E 45
 86 D7 7D 0A B6 27 6C D0 91 28 8F 0B 06 E8 98 C5
 22 3B D8 D4 E0 27 86 20 A7 64 25 00 E0 F7 F5 30
 4B A3 73 D7 A8 BA C0 8D B6 E7 02 5B 30 F5 8D 61
 E9 DE 24 17 DB 7C E5 76 DC 71 50 DB 0C F7 33 E2
 EE 01 AC C0 65 58 C9 54 E9 3E A7 3B 2D F2 EC 36
 78 D0 7A 2B FE FB 61 99 CE 75 24 FF AC 5C C0 59
 D4 62 83 F5 DC 68 D0 CB C8 7E FE A1 3B 54 B1 EE
 16 51 FE 59 A3 C4 CE ED 1B D6 6A E1 BC 13 38 34
 45 A5 C8 5B 20 11 FB F8 30 6A A5 F0 9B 66 E4 F9
 6E 47 47 AB 75 57 59 1B 29 53 AE 18 05 B1 C7 AA
 C8 A8 60 F3 2A C4 F6 AC 79 DD 9C B0 D3 5D E0 C5
 10 90 CF AC 42 94 00 F1 75 BD 11 C9 F3 1F 89 CA
 2E D6 14 2E 6F E0 FD A1 BB D5 62 1D 4B F9 80 9E
 57 60 7C E4 DC 28 8A 2C BA 73 F5 3F 38 98 24 A0
 A5 47 23 90 0D E7 4A D9 9F E8 82 78 D4 38 0F D1
 1D F9 86 CE 48 BB 0D F4 73 1F E3 AA 96 47 94 E0
 FA 21 E5 5E FD 0C D8 A3 C7 D5 9B 40 71 39 00 09
 B4 64 E5 68 56 8A 96 D1 EC 12 A1 4C C3 A4 FB 28
 D0 8F 2A 30 37 E2 28 7F 96 59 A4 04 A6 2E 02 49
 37 B1 57 E0 76 C0 91 BD CB 32 37 E8 37 2C 34 61
 88 DF EA 73 46 90 A3 39 CE 94 22 80 42 4F B4 3B
 5C F8 A0 DF A7 38 E6 61 04 32 A0 08 59 BB 91 D1
 9E DD 18 D7 5E 19 1D 2A 60 FE EA 16 D1 66 83 61
 E2 0C 99 D1 34 7B 36 13 58 57 D0 B5 D3 F9 E2 7A
 9E 8B 5D C4 73 0F 08 3F 59 21 8A 96 43 13 53 0D
 2B 5D 47 8A 0D BD 2F 01 8C 08 B4 2D 3E 3B E9 34
 5A 09 8E B5 8C 6F 1C 8C 4C E3 DF 66 29 12 AC 63
 F7 CD B7 1F 5E DA 88 D9 A3 CB CF 58 63 41 2E C5
 18 CE 85 51 55 BE 0F 4B 50 92 2F 95 ED DC F1 22
 48 CB 34 00 CC 7E 86 E2 60 46 D1 FD 01 E6 2C 3F
 3A F1 03 4B 44 C8 5A 0A 9F B3 A3 20 54 A5 88 10
 11 26 F1 AA E8 F5 04 70 34 EC C0 EA C1 28 41 7E
 60 1A E2 01 1A A8 E4 E9 19 3E 31 77 5F B3 2A F3
 50 66 3B 30 EC 65 2A 34 6C F7 B6 09 76 4C C9 14
 04 AD BE DE 2E EB 3F A8 0D A6 66 AD 73 E0 6B 6A
 75 9D BF 88 93 0A CA 64 7F 51 CF 7B AE DB E5 83
 69 2B 0F 1B F7 48 9F E8 1D B8 57 13 6A CE 6E E2
 98 F4 12 9D E1 7C FB BF C3 E3 1C 28 93 E0 23 16
 10 33 40 1F 7B 44 9B 05 9F 9D B9 1B 19 15 38 6F
 DD F9 01 69 FA 1D FC 5E 36 33 80 B2 74 51 29 B2
 64 73 09 41 F7 D4 70 AB 79 FC 3F 00 0F 9C 45 D0
 66 71 AD 8C 66 63 CC 52 E0 77 1B 56 9F 63 BD 10
 BB F0 1E DB C9 B5 79 3E 89 57 D3 D4 46 2F E6 31
 6E DE C2 E4 5C 77 4C A6 15 FD C1 97 D1 6A A2 D5
 E3 24 2B 57 81 70 9C 3D 0E 8E 16 F8 5C 8E 89 22
 FE 03 E7 C0 5D 3C B2 70 92 66 E7 A7 0E 89 B2 BA
 79 9F 86 D5 3B 31 2F 6D 6A 43 64 43 57 22 DE 69
 36 C5 52 55 56 A3 CB 44 01 42 CF AE A0 BC CA 78
 9A 58 19 1F 64 F0 44 9C BE C6 CD 96 D6 DF E7 B7
 1B 61 75 21 E0 2A AA 60 39 EF F6 46 69 D9 1D 38
 EE 59 2D 52 3C A9 66 7B 9C 92 D2 E3 CA C5 DA 56
 87 28 1E 34 1C 17 11 29 2A EE 7A 05 49 7F D8 E1
 52 AB 4C 37 6F 69 DC 9E D1 4D 43 33 0A E4 F8 0F
 C8 54 24 CC F2 AE 62 2B 31 8A D7 71 05 98 52 24
 30 CC 42 B2 B6 82 4B AB B3 00 F8 86 01 12 C5 00
 CB 69 B3 A7 9F D4 6D B5 2C C4 F9 A4 6E 57 82 7D
 32 3F 92 05 72 0B 7F E1 0F AC D4 2F 4B 2B 2C DF
 53 5C EC 35 C6 3A 97 B6 26 96 AA F3 1C F1 FB EC
 EE E3 CD 8D 89 01 83 2B 90 68 8A 20 9A 54 9C FA
 46 02 9A 39 2C EF 28 84 D8 B3 E8 30 F1 52 75 E5
 64 D9 AA B6 20 ED 00 E6 C6 63 5D 72 91 36 79 4A
 0E 6F A3 C7 17 83 8F 25 59 98 17 66 02 7F 4E 12
 CB 84 AC 29 6A 46 2A 2F FE D5 61 1B 20 A7 5D C6
 32 31 16 EE 6C 04 7C 50 A5 F8 67 99 40 F1 FB 8F
 63 C1 47 D9 70 66 25 7F 98 3B B4 D6 34 8A 0E 20
 30 B2 00 1E 70 32 94 0E B1 D8 24 1D C8 AA A3 B8
 9D 5B C0 33 DB C0 65 1F 13 39 4E 91 3A 9C F7 46
 AB 86 7F 12 07 67 EB 06 F3 7A 15 4E 8A 06 0C 53
 61 5F EE 90 35 55 DC D1 F1 02 9C 27 CA D0 9D A3
 49 96 2E E3 DC BE AF 21 DE AA EF 0F 48 17 76 50
 86 01 53 D5 B1 29 1F C4 2E 6F 7E D8 AD 0E C2 39
 0E 20 14 BB 50 E6 B5 D2 8C 76 96 84 5E 58 D4 57
 41 2D 29 3E 80 67 01 26 59 02 04 14 35 9E D4 2C
 E6 87 FE 4B 7C 6A AB 94 5C CA C5 FF 0D 9D 64 2E
 AD 45 E6 61 AB 25 CE 36 CC 04 14 8B C2 AF 6E E8
 93 B0 DC 3C B5 51 4E 35 29 27 CD 2B A0 37 26 54
 F9 BD D5 3C 21 38 0B 58 A9 CF F9 43 43 07 AE 25
 B9 63 11 99 92 65 E8 2D 67 A4 E7 FF 30 09 E3 7C
 41 BE 75 B5 53 35 1D 9F 43 73 CA D1 2E 47 3D 1E
 9B 78 F4 E4 A4 34 8C C7 02 2B 51 50 0F D5 9A 49
 4C 18 A5 45 4C 37 34 53 46 60 95 34 25 D9 DA A8
 5C 10 01 99 4A C2 FD 04 71 2C B8 A5 39 BA 3B AF
 3C 74 B4 CA 3C 94 F6 87 DE 0A 6B B4 2A 43 72 53
 BD 80 C8 4D 81 9F 2F 36 80 20 2A 3B E4 68 48 79
 EC 6E 76 F0 6C 0E AD 1C AC E7 A6 A9 FA 9C F3 1D
 0A F4 C2 85 AA 1C DD B9 72 38 AF 14 D1 35 AE 4B
 77 B8 E4 7C E5 D1 86 9F 8C FF 04 8A 0A 3A 63 84
 F5 AB 8D 58 98 58 22 5D 8B D9 20 93 9B 5A F3 A8
 DE B9 43 62 88 FE E1 62 FD 49 36 06 1D 9F 3E CB
 9E AE BE 08 2C A1 03 86 61 5D 51 71 C3 B7 44 FD
 2B 12 24 BD CB 66 D0 61 7F AD D2 74 0B 2C D5 BE
 AA 2F B3 AA 7D AB 1B F8 4C 90 CE ED 42 EC 45 C7
 F0 17 72 B6 31 F9 09 1E 81 FD 48 B5 BF 2A 06 58
 67 7D B7 94 6F 24 07 9B 7D 76 51 70 6E EE 43 F7
 92 7D FA E6 E0 E6 D3 2E 4B C7 1B 7C 51 B0 AF B3
 A9 C6 E6 1D 7F A5 93 33 95 28 E6 D5 9F 34 FA 16
 16 F6 8A 5D 93 05 65 3A 1C 44 78 9B EB 1E 66 AB
 18 FD 0B DE DF E3 FA 8F B1 F9 F1 C7 D0 ED 9A 5C
 81 35 F8 76 FB F3 3C 15 3E A3 AD 9B 34 00 6A 5F
 42 A3 C3 28 57 62 DE 00 F7 D6 33 94 46 7E C9 2F
 88 DD E6 DB B1 D3 6D B3 D8 C2 32 BE 22 0A 03 F0
 F0 E8 E5 66 55 90 27 40 30 41 E8 81 42 9F BB 37
 2A A0 42 E9 11 6C B7 EA E1 0A AC C3 2F 61 BD AA
 D7 1B C0 1F DA CE 3A 0E 1C 15 31 EF 8B DF 6E 88
 5D DE 02 E8 B0 DE 01 77 F9 6E 19 AE 3A 79 46 FE
 68 BA FF 48 17 A7 1F 79 5C 08 C2 BF 48 AD 46 92
 4C 53 F7 3C 3A D9 F6 4E 93 40 BC F6 8C 55 10 7E
 FF 3D D8 43 7B E4 B3 A0 E8 7C 46 99 DA 30 9E F9
 BF 47 1B 45 D6 E9 61 E0 46 DE 5E 7F 67 79 76 B8
 5F D4 36 B5 0C BB 80 10 27 FC 76 40 B0 1D 0C 3D
 B2 60 30 58 48 1B 54 BE EE 15 07 AF D4 1D 10 68
 8D A5 39 B7 C2 9C 7D 49 CA A7 49 87 CB FC AC CA
 D8 C6 59 BF 25 9D 4B 82 B1 E5 05 85 99 27 A2 F5
 CB 05 8A E3 50 A2 61 36 12 A4 93 12 A9 86 68 11
 E4 87 04 01 FF F2 F5 A0 CC FA F4 4E A0 65 DF 45
 05 50 8E 0A FB B3 79 0F 3E 8D F5 25 16 89 AD BA
 49 C4 A7 14 2B A5 1F F5
* End 4064321862 3411016271