* LTspice Encrypted File
* 
* This encrypted file has been supplied by a 3rd
* party vendor that does not wish to publicize
* the technology used to implement this library.
* 
* Permission is granted to use this file for
* simulations but not to reverse engineer its
* contents.
* 
* Begin:
 45 19 35 6B BE A4 90 3A 3A AE DC D1 45 DA 02 A8
 48 F7 E4 72 F4 C1 3F D0 5A D7 F6 AE C5 58 F4 C1
 E5 E5 39 DE BA 93 95 02 F0 9E 8F 15 67 2F B2 6B
 F0 B0 36 0C 37 E1 81 95 95 6D A2 11 AC A4 D0 BD
 0F E2 5C CE 4C B8 58 FB AF F2 6F D8 BB BD B2 E5
 53 2E 65 57 08 93 73 07 D5 51 F4 A8 09 06 02 7F
 6A 66 97 BC 3F C6 55 57 E9 80 78 3E F6 A6 0E 0A
 43 D5 96 D9 E0 F8 5F F3 47 FD DC B6 68 F4 3F 36
 4B 1B FC 79 E7 BD 1D 62 22 92 39 AC 33 E4 BD B8
 9C 4A 8F CE 27 02 43 1B C3 13 AE C1 21 59 C4 0F
 41 92 21 F8 8F 65 94 29 89 AA C4 92 9A 89 3A 1B
 55 B9 DA 5E E2 3C 65 B4 F1 FD 81 E5 EC 68 E1 D1
 6A A3 67 A9 B6 78 EF 8B D2 B1 B1 63 2F 91 F7 A9
 A7 2C 5B FE D0 AA 08 60 E3 B4 B4 71 53 9C 5F 30
 0A E4 46 41 AF 2B D0 C8 F4 13 0C 10 B3 66 F5 91
 44 14 64 AC A0 53 A9 E7 B4 B7 69 F8 15 FC FB FF
 ED 39 2C 58 C6 57 C0 D9 C3 75 C1 12 C5 4C 86 9D
 A5 20 84 19 61 44 5A 9E 26 95 A2 0C 67 9F 60 7E
 51 4D 17 E7 78 19 2F CE 4C C8 56 2F D2 CB 3E EB
 33 5C DA 17 D7 27 BD D1 8B B3 B3 6E 37 EF 3C 7A
 F4 AF 83 02 E9 9B F8 BF 8B 39 A9 18 3C 3B E3 45
 B2 89 1D 85 ED EB 53 8C FA A6 CC 29 54 C8 A3 BE
 32 07 CA 16 4B 4B A8 64 53 2B 3A B1 18 27 D8 47
 74 5E 58 85 F5 75 0F 1D F8 E5 3B 29 EF 79 EE 3D
 56 59 B8 58 C5 8F 6A A1 03 B3 0A FE 65 E1 57 18
 BF F9 33 98 42 CE 90 23 DC 6D 4A 17 C1 50 CB 15
 A2 23 26 42 39 3F B8 EA 80 71 EC 6F 6F CB BB 6C
 AD 4D 73 97 06 5F 2B 39 98 82 E7 6B 81 FA 48 C3
 9E 6A 69 FB 97 2C C0 7E E1 5C 65 34 25 7D 78 D1
 24 3F D9 AB 1A A8 E1 53 50 DE 3F 65 92 B4 34 3E
 35 82 F2 09 AE 0C 99 B5 A4 07 2F 8B 84 A0 AC 24
 9D 08 A5 BC 51 ED A4 1F F5 E7 C7 0A 53 93 7C 47
 FC 79 D7 1B FC 60 52 C5 5D D7 DA 76 84 A0 B5 AA
 1C 70 C6 69 60 BD CC DF CF DF 03 6A 3D C8 D9 FC
 CC D0 25 51 9E B9 DD C2 C9 EF 82 26 7E 27 9C 94
 65 87 58 1C 53 0C 93 C7 C4 3A C1 55 5B D2 A8 53
 04 FA 46 BF DB 3C 96 91 BA D8 DF 0D 11 42 21 A1
 80 97 7F 20 A8 D4 94 7A 74 3E 06 E1 29 3A 8D 4E
 99 1A E4 B7 62 CF F7 2F B8 85 97 0B B7 A2 1F FF
 C9 17 62 F4 28 D6 23 70 F4 76 10 A7 04 11 61 49
 F2 5F A2 0E 48 18 84 02 07 24 9B 12 70 15 92 9C
 26 BF 61 17 9A B1 F0 F3 91 49 30 48 EB 69 36 18
 E7 B2 C9 06 B4 17 3B F1 8B 4C 00 72 47 5C 6B 69
 50 77 1E B2 19 BD 3F 02 B4 05 38 C2 5D 32 16 46
 9E E3 F1 F3 B8 A8 76 F1 BE 38 B4 0E DA FC C2 78
 01 C1 27 60 55 50 3F 62 2A 83 86 93 BB 6F 03 E2
 60 58 2A E8 86 5E B1 A2 F5 77 D8 C7 20 F5 19 A7
 92 34 1C FD 63 96 2F 32 E2 F4 E0 BD 5A 9B EE 46
 C2 58 CF 10 D6 62 B0 19 20 01 1A A4 3B C1 6A 5F
 A0 E6 66 0F 00 BB BD 9E CB 83 FE C9 35 2C A1 A9
 F3 47 56 AC 44 CE 94 9E 18 B6 18 B4 26 9B 9C F0
 BF DC B1 C2 32 2A 56 C6 A5 0D C4 2B 36 C4 4E 83
 84 E6 E9 CE 15 16 F2 85 1F 81 08 CD D9 38 CC 3C
 50 87 E1 A9 B1 FB 69 BB D0 E1 9E A9 E8 1D 21 F7
 A0 F4 C0 49 8A 63 DF 73 1E 0D 3E 7C 04 39 4D C6
 0F 00 BE 3C 7A CB 09 21 23 F9 0C 33 06 E9 D6 A7
 83 57 FE 01 A9 18 B3 ED A9 CF D4 74 7F 81 31 BB
 CA B1 CD D0 32 B4 23 81 93 40 81 F3 09 4B A5 B4
 87 B2 97 FA 9C 09 21 6D 90 C8 6B A9 EB CB E7 D7
 CB 4E 86 E1 89 43 D9 8B 28 BD 77 6E 51 F1 86 02
 DB 44 82 B3 2C 57 63 6A 2B 32 8E C4 E3 AA 93 F9
 C2 EC 02 E5 83 94 37 10 79 14 B6 92 90 2E 51 F0
 C7 76 85 A7 19 82 C1 CF 30 9F 6C 77 94 43 C8 98
 C9 9E 63 BE 76 E6 F1 E0 3B 33 C4 F1 9F A7 79 CE
 94 56 C8 50 D6 72 33 53 B2 C6 0B F7 22 ED 64 A1
 B2 05 FD 04 35 4B 6B 9F 25 3E 1A E7 62 F8 9A 1F
 AC 8D 3D 45 F7 27 89 24 48 C5 64 B3 E5 76 23 87
 19 5C 93 C2 91 17 D4 93 9D 0D 0B AC 8B CB 32 6A
 5A 9A 5E 48 B5 47 EF CC 76 B3 DF 69 83 68 A7 73
 1E C2 DB 2B 2F 93 2F A0 45 01 9C 7E 62 3E A5 14
 E4 2D 24 2A A4 90 74 6F ED D8 25 26 B3 FB F7 9F
 31 CE C6 CF D0 8B F4 B0 B7 46 FC F1 3B E5 41 FA
 F5 52 39 93 99 C2 5F 66 5A 1D 77 02 96 11 8E EC
 22 07 D8 0D B4 DA 26 8B D4 EF 77 53 D3 CE 52 2E
 80 F6 E9 D8 C1 79 98 90 47 4A D4 59 DC FA A2 E2
 C5 C8 D3 D0 71 74 B4 5B DD 2E F2 20 51 0A 64 09
 04 85 34 15 58 86 9D 12 20 00 02 AF 5D 15 79 13
 C0 3B 9B FF 5E 95 D1 E6 00 32 9E 1A 26 9E A7 73
 52 31 66 B6 51 72 E6 EF B1 CC 82 08 BD 16 FF 6A
 05 32 21 F1 A9 69 C7 A0 DF F6 42 33 C8 80 C3 B9
 7E C7 45 34 96 3D 36 F4 BE 3E 00 7F 8F F5 23 6C
 9A 1F 83 80 6B 02 B9 45 F3 EC D4 34 59 31 39 C1
 53 FA B5 12 50 41 9C 68 52 46 BE 0D B5 84 15 34
 DB 5B C0 3D 02 71 A7 7E 2E C9 FC 02 1A B8 A7 C9
 6D DF 3C 35 D0 FE 0E D9 20 E5 5E FE 61 C4 21 4E
 B6 92 9C ED 97 EA CD 81 84 86 C3 B1 0B 56 FB F0
 97 68 C1 05 C8 59 50 17 58 71 AC F0 E0 A0 1B 31
 8F 95 CE E3 B8 B1 B6 C0 51 7C A7 C4 92 6F F3 2B
 08 3E F2 B2 E8 F8 BA 6D 03 52 44 CB D9 64 19 0B
 78 4F 2F 5C BD 69 40 9B 2B 83 5E BD 64 45 D9 99
 4B E2 AD D7 D3 79 C2 00 C1 3C 49 3B 1D 8D 63 7B
 94 33 05 6C 12 59 B3 9C A6 89 19 8D D7 B0 47 35
 86 70 45 37 55 EB 14 C4 C9 C6 E2 A3 76 BA 01 C9
 EB 12 E0 55 35 35 CE EA 44 75 25 E8 D3 CC 4F BA
 4D 98 55 59 CC 86 2B AE E2 08 50 23 D0 4A 1A A1
 F7 EE A4 2C 14 7B 48 E0 A5 D2 4B 52 5F 9E AE 35
 CC F2 0F 57 6F 37 8E 57 1A 1A E6 2E 36 98 FA C5
 C4 A1 2B 78 49 7A E6 72 67 A2 77 36 51 A4 A4 06
 25 0D B0 8A 44 44 6A CE 6C B0 EB BF B5 9A 7B 7D
 5B E4 0A 50 B6 12 63 FD 3B 15 F8 3A A2 B0 92 6E
 11 DC 3E 8A 7D 60 DC 28 2A 64 7B 28 C1 54 84 60
 0B 45 BC 35 75 3B A0 11 FE 86 82 1E 78 6E A0 40
 9C D2 C1 4F 48 81 18 1A F1 24 B0 57 3C CD A9 25
 4F 62 2E 9E DF 95 58 BE 10 E9 AF 67 62 87 D2 81
 95 D0 5E DD C8 5C EB DC 4E FC D1 61 98 12 52 7F
 74 20 1C 74 EF 0B FA D5 0A 5B 79 BF 03 5A 70 58
 85 5D C3 91 EE 6B 0C 68 29 54 2E 76 FB 1E 48 94
 DA F2 4D 06 F4 83 1A 11 D9 26 63 29 4B 38 AF E0
 2B 96 B8 AD 81 90 E5 A9 92 4B 53 8A 0E 25 12 A0
 1D 71 7B 7F C1 3E C8 DF 8D 50 09 B9 23 E7 AF 48
 EF EA 3B DE 01 BF EA 32 76 0C 34 59 3C 76 00 5F
 B5 49 48 58 64 6C 32 1E 9C 01 AC E4 9D F2 12 9E
 17 6C D9 87 03 94 0C FB 23 B6 56 A9 18 D5 2F 16
 52 3D C7 07 73 40 CE 7E 55 37 06 59 29 17 25 60
 EE 96 6A 2D A4 F8 20 22 85 8B 8D 6A C9 23 E4 42
 B7 58 9E DE 1B D0 F4 4C C3 50 EB F1 6A 31 1C CA
 44 88 41 04 BE F5 E1 AA 86 CF 03 A0 83 3A D5 81
 DE 4A E6 84 36 95 09 AD 18 00 3D 9A D4 27 37 F1
 DF 3B 58 6E 43 AD D7 0D CC 51 BD BD C8 16 1B 2C
 A0 43 B0 C6 DE BE E9 03 00 8B FF A6 6D 60 83 0A
 B3 60 09 34 6D FC BB 78 2A 03 D3 5D EB 35 C9 16
 C3 80 85 1C 2C FE 2B 62 77 92 4A FA AF 5B D6 67
 36 D3 DE F7 91 D8 AB 36 57 99 AC 24 D5 8B 76 E0
 B0 F9 56 4E 2B C1 3B D8 14 59 9D 5F 0F C0 7E 03
 ED 9F 83 E4 A9 90 1E F5 14 E1 67 3E F7 76 00 9F
 31 4A 04 D4 84 4B EF C5 40 97 A3 A3 78 38 8C C7
 50 1B D0 64 6C 77 D6 02 AC 17 2E E5 C0 19 FC 0D
 AF 39 D8 68 71 C4 35 EF 2D B2 60 61 7E D8 AA 86
 B1 B5 81 FB FE E0 64 93 B8 5E 23 32 1E EC F6 68
 A2 97 71 F0 78 83 89 F4 F1 64 8B AF 4E DD 5E 2C
 40 B2 15 10 4A EF A7 DE 53 03 7E D7 FF 76 87 CD
 CE EF B8 E4 B8 94 D0 E0 B7 5F 45 F5 1F 16 CB CD
 76 26 EB AE 23 3B 20 3F 55 72 94 5B 75 A4 74 F1
 1D F1 FF CC 1E 32 03 78 34 5F 73 C7 2B 4A CA AF
 69 F6 0B DA 54 01 28 27 7E 3D 2E B4 8C D3 D1 29
 08 CD 9B 74 1B 9F 41 C1 B1 00 8F 87 B7 6B B0 C7
 4C 84 CE 97 CD 60 E2 21 39 9C 0C DD A3 1A 6A 82
 F0 5E D7 51 06 5D BF 99 CC 8D 10 67 31 EB 8B 2A
 82 0F 12 2C F5 FC A3 01 CE 3F 72 69 5F 67 B6 9E
 5A C4 EE 19 8E 5E 5C 90 2F 37 1D A6 DE 6E 6C CA
 CC 6A 13 0E F6 3E 6C 6B B5 DA E3 87 8D 3B 19 E7
 B1 29 DC 14 6E 18 B7 A6 3E F0 3C DF 6F EC 4F 5C
 3D 5C D7 72 6E 94 4B 6F F3 E3 3C 2E 1B 7D 6D 3A
 AA 8D 6F A7 FF 35 AB F4 66 81 70 CC 7C F4 D6 D2
 4B 76 6D 39 68 CD AA BF F4 B8 D4 3A 14 76 1B FB
 69 54 13 8D 72 FA E4 86 E3 36 B5 2A 4A 53 EC EB
 01 83 37 D8 1E 03 26 51 13 08 3F 71 09 28 6E 41
 F9 36 B4 99 3E B5 44 26 40 4A A4 1C A9 45 C4 DD
 98 6B 37 F5 83 B9 78 DB AB 95 10 0D 69 7B 2B AE
 FD AC 08 26 33 30 AD 0D 7B B3 35 11 3E 5B FE 31
 58 28 A9 1F 64 65 87 D8 BB 1A F5 A7 12 77 A6 7C
 D3 53 D2 88 56 AD 03 48 95 A2 79 C3 33 A8 5F EC
 B1 58 95 1C C6 4B 5F BF 0A A9 3E 2E 76 9C 5E 00
 E6 7E DB C4 81 4B BE C1 72 28 DE 86 FE DC C0 72
 4E 71 D6 05 AD CC 8E 97 DE E5 74 03 E9 4F 46 B4
 28 7F 12 C1 9D F9 98 A0 B8 C4 C8 C4 44 0A F1 E8
 B7 D7 60 D9 79 D1 1E 4E 0A B3 BD 0E 5B 44 A1 1A
 D8 CD F2 33 36 F1 28 6A E0 46 9A 5C 5A 20 D7 C6
 19 89 87 13 C6 FF D6 13 2E D1 F3 1B F0 65 7C 86
 67 EA 78 E8 8F 0C C3 6D 62 67 05 0E E2 A6 C5 BA
 95 3C DE BE A9 DE 8D 82 D8 F6 02 B8 B2 A8 0C FF
 2F 39 B5 C0 25 87 EE 33 C0 BE E5 E5 9C 5D 2D E1
 8C BB F9 8F 1E 5E A7 5A 72 C4 EF 64 59 0C 65 39
 1A 87 04 0E 40 A2 AB 3E A2 34 8E BB AD 2C EF E5
 33 7A 83 86 9F 5B 3C E7 66 2A D1 11 3A CA 28 E2
 44 97 B2 AF 0C 8E C1 48 CF 37 27 0D CE 80 05 55
 83 61 05 CC C3 FC 3A 22 0D 40 BB AA 66 B1 CF D2
 C1 FB 0F 0F 54 3D 2E 93 E9 BB 2E 86 1D 50 E8 EA
 BA 31 71 8E B5 BD B8 C0 03 05 1B 5F 24 9D 9A 6D
 B8 A0 BA 67 E5 90 30 1C 2C 5E 85 77 2A D9 90 F0
 B3 5E 73 4F B4 59 DF EE 6C 5A B2 0A DC 76 B7 D6
 F8 2B E0 54 18 4B 56 E6 A3 69 03 48 A9 E7 6D 23
 82 F5 7E 82 54 B3 A9 C3 61 8D FC 81 7F A9 1C DA
 40 2D EB EC 70 56 09 21 62 DA 31 C9 44 1C B0 94
 66 8B 60 07 AF 30 F9 BC CE 6A 65 31 FF CC 67 1C
 0F 1B 43 76 E4 05 95 37 0E 29 DA FA E8 FA 55 29
 88 C3 C8 F6 EF AF C2 B9 55 23 84 D5 CF A6 67 37
 A1 3C 43 C5 4F FA 8D 4C 99 54 A0 7A 16 0B E9 14
 AB 3E 17 CA 90 28 45 E6 B8 F6 62 7B 30 29 EE B0
 46 14 09 04 B0 4B 55 3D E9 5A 3A 90 C4 AE 12 0A
 44 F9 51 6B A1 5B 78 1A 9B B9 DE A2 4F FB 52 22
 6F 18 40 53 71 5F A5 D5 7E D7 C4 51 71 27 A7 A3
 EA DF E5 FD 77 5E FF 0C EA 81 66 83 73 C5 E6 01
 75 AA 10 25 74 8E 7E 29 B0 A1 83 BF 0D DA 5A 10
 DA F5 3C 42 5F A8 BA 22 D1 AB 13 E7 A0 95 88 BF
 92 5D B0 3B 07 99 22 5F 29 3C 3A 0E 49 47 B7 66
 DA FB FF 66 F6 AF 5B 0C E3 C8 F7 A5 67 52 0B 9E
 40 85 2A 1D 8C C6 1C 4F 8A 8C 8D BB 75 5F 4E 85
 8E CC 1A 45 7D DA 08 6E 65 86 5D 17 00 1A 07 36
 2F 76 77 1D FC 46 C6 26 66 D3 85 74 9D D2 4E C4
 A0 A8 B9 A4 DF EF 81 EA 52 4A A9 24 38 AA 11 A7
 D3 7E 5E 1F 56 AF 26 47 F4 3A B4 E4 2D F2 15 0F
 E6 43 60 2B D9 83 02 B7 B8 3E D6 58 65 EE F8 31
 E6 69 DE E8 88 E8 ED 34 47 BE B3 D0 AE 36 B3 BE
 FC 06 4F B9 42 BB 6D 97 C9 5D FF 34 8B 15 3E 35
 02 E9 50 94 BE 7B EB 65 28 A5 AD 34 42 C2 D4 04
 A7 04 DE C7 3C 3B 0B 9C 54 2B 06 01 69 FD 6E C8
 E5 AF 0E 15 CA 1D A8 42 F0 80 DE 72 24 89 CD DC
 94 FF 18 A5 3D 8A 73 C1 24 49 7A 48 2D F0 B5 05
 4A 19 DB 5B DA 93 CA 12 44 2E 8B B0 0D BB 53 19
 81 C6 1F 94 65 6A 5D 64 CC 54 02 0F 56 DF DB B5
 1F EE 9A 10 DD 3C 3B 81 8F AF A8 0C AA 94 15 51
 B3 F9 7A 3A E0 B5 01 AD D5 3C C4 E0 D3 17 6C 4E
 47 FE D9 8A F0 AD 3F F4 2F 07 10 C5 42 78 85 14
 22 48 7E 76 FB 3A 5F 49 B2 36 99 E3 AC 25 F8 BC
 2E D3 0A 7F FC 93 80 6B A4 BA 1F D0 1E FD A4 AB
 F1 46 7B 08 77 33 8F 47 A9 F3 B5 C5 AB 57 C9 94
 6F 34 3E 72 A1 AD 4B 86 1F DD 53 30 6A EB A2 21
 0C 16 F3 7A EA 1F 81 14 77 44 F2 D5 E2 E3 71 E2
 2E D9 18 00 53 84 08 DC 10 73 4D FD 4F C2 2D 7C
 4A CF F2 A5 E9 E7 33 D5 47 77 88 9D 82 AE 40 0C
 46 86 A0 98 86 F3 F9 44 8D B5 1E B1 D7 14 00 EE
 18 D7 CD 95 A8 7A A3 85 2D 5E 37 88 A8 51 42 53
 1C AF 8C 8D 72 1F 4A 11 F5 D7 FC 77 E0 2E EF 01
 49 7A CA B7 1F 0A 98 9B A0 EC 89 0A DE E2 21 7F
 18 65 18 54 6E A9 71 5A 15 F2 BE 85 BC 34 12 68
 9E 90 DF BD 11 16 85 0F CD F6 B2 B0 76 70 E5 15
 FD 72 BF 71 36 A8 77 75 6F 3E B5 40 7E 75 D3 AC
 64 D7 29 57 C5 DF B3 31 01 90 08 45 28 63 55 E7
 02 87 C2 D9 7D 8A EF 18 F1 F7 56 DD 2F C3 98 4A
 D9 61 39 49 22 9D EF 52 B6 EA 21 32 F4 EE 40 B2
 B4 90 9F 59 83 2C 48 A6 C9 F4 85 E9 3D 00 FB 81
 02 8D 9C F8 26 5C 1C AA 52 C3 8E 11 A4 A6 63 4D
 51 0D 82 C8 75 B9 1F 26 D8 F7 6C EE DC D0 0F AA
 77 7E D3 76 DF FB 4A 4A 5C F8 83 FF D3 AD D4 D2
 18 1C 26 91 AC 1E A6 65 82 DB 28 CB E3 98 BB 7F
 E0 0E 38 83 03 60 CE D9 6E AA DE 34 B4 7A FE A5
 C6 42 00 8F 8C F4 70 FF 6E 9F C1 4B CF A3 F9 FC
 1E 52 12 73 22 F7 37 E2 EB 81 13 A0 F2 84 CC BD
 A1 33 D1 63 E3 50 25 1F C3 7E 4E 6B C9 60 B2 7C
 18 A9 41 CF D7 11 EA 21 E9 65 76 E0 CE F3 BC 76
 B1 61 53 BB 81 51 ED FC 68 42 BF A9 E3 B1 44 97
 DD A8 17 62 BB 1A DA FF 5B BE CB 56 BF 25 6C 66
 87 6D 92 04 4B 34 F2 8D 3A 2E F7 29 4E 51 BD F6
 D5 73 57 1E B9 DE 08 D1 F7 91 42 5A C6 71 B8 C0
 F0 1A D2 75 B0 02 5D 12 67 57 8C A8 5A EC AF 22
 C2 D0 B2 29 7B DC C8 3B BF 18 E4 BA A2 D5 E4 07
 49 2E EE D4 CB 38 34 05 51 A9 30 38 78 EA E4 90
 AD 61 40 7F AA A8 37 17 C6 1E FE 1E F2 D7 AA 8D
 31 99 3B F3 19 52 2F 68 14 A0 24 A2 C6 61 4F D6
 09 0B 01 91 29 3B D9 EB FB 5F FE EB E8 5D 1C 01
 8B 40 74 7C 8C 39 2D 56 FF 9E 8F 91 18 10 0D CE
 03 A7 E7 5E E3 91 63 23 03 51 F5 FA 83 18 A0 06
 C6 F9 35 5C DB 3E 36 33 2E 8B F0 3D E3 8C 4F 13
 4F D2 6C B0 D1 57 33 EB CE F7 53 45 20 2A 20 04
 D8 F3 27 59 70 8F 9B 00 EA 30 32 33 F3 57 A5 01
 59 1E CC F5 5A 52 F4 60 51 BA 43 5E FD 06 E6 60
 7D 64 AE 46 6A 4D 13 8D E9 12 C9 7F 25 87 3A D8
 C8 C8 9D B4 50 6B C8 07 82 67 CD 2E 4F 2B 93 E5
 A2 5D C4 39 0C D7 69 85 5F E5 EF DA F4 47 BC 79
 CB 67 1A 07 16 2E 4A 3E A2 16 C2 CC 2B 93 04 C6
 40 8B D9 09 31 19 40 B5 D6 70 6A 09 9F 7F 0C 1D
 07 D3 B6 72 1A B9 50 F0 2A 35 08 82 7E BA 61 94
 2A F3 D4 80 F0 BB 5F A2 98 04 D6 BE 6F 96 59 98
 AE 57 C8 BA B9 32 D8 EC 6A 1B 9A 0A 47 33 7A 56
 E5 F0 F4 56 1C 1E 2D E9 98 87 58 F2 CA A7 04 B5
 81 51 1E 44 76 3D 75 56 1C 6B 90 9A B9 FE EF 6F
 A5 06 DB 1B EE 83 19 A1 01 FF 48 7C 32 6A E4 C1
 79 3A 72 7E F1 7E 5D 7A A7 01 E1 3B 6F 44 90 EF
 C9 FB 8D 21 6B 78 CA 4D 7A D5 63 18 EF ED 86 73
 C5 ED 7A 6B 17 8D 6E 70 97 B0 EB 14 E0 58 CF 99
 E9 31 6A CD D0 22 F8 9A FD C8 BE 88 5A AD 00 37
 02 2E F5 A0 E9 8E 65 65 48 F4 4F 99 17 53 FA AD
 5D D1 B1 D8 03 74 BC 27 95 0C 36 83 64 6A AB 99
 95 A9 9B 58 F4 A0 F8 46 DE 10 1B E5 58 1C EA 30
 14 C1 C2 E1 FD 67 1C 0A A1 B8 B2 EF CA 7C DE 20
 41 33 6D F9 04 2B 58 D6 37 A8 C0 31 0E A5 E9 44
 CC 18 73 74 D7 2B 5E 57 D6 DD 33 AC F8 D9 74 B3
 62 B3 7F 62 D7 0E E7 91 4F DC BB 67 E0 A9 51 9F
 15 D7 EA FC ED C9 52 09 C3 D0 AF F1 06 E4 24 F0
 81 BD 37 24 D3 AB 0B 54 38 4D A9 F9 94 90 04 00
 36 A5 29 5A 72 C9 A3 0C 3A 2A B6 81 B2 BA E2 9D
 7C 41 32 23 5E 3F D6 1F 7C E9 C5 DB 53 4C 01 41
 7B 53 DF DF 0A 87 36 9E 53 0E A4 1A 60 FB 2A C4
 A4 0F 17 D5 FF 2F 74 84 2E 7C 61 21 13 07 2A 2F
 4F 5A DA 08 62 29 B4 EB 6E 68 19 95 A5 6D 94 C6
 9B 52 09 B0 1F CB 12 F1 11 61 EC 27 CD 8F AA C7
 B7 75 D2 B6 10 1D 97 C4 57 61 3C F8 52 C6 E8 1B
 60 CD 64 3A 73 31 60 32 6A 34 8F 80 73 B5 68 C7
 14 26 A2 40 EE 5D BA 73 53 9B 0E CD A9 D6 62 DD
 2C 7A B5 5A 77 7A 97 41 A1 94 22 FA 85 36 50 02
 0A E6 F3 AF 06 08 6E B5 7E FF F1 89 B4 54 BD 5E
 05 96 C4 E1 EC F5 A6 71 2D 37 56 4F A9 CE 04 13
 74 16 07 C7 00 8A AC 91 41 A2 EA 99 F2 BA 18 A5
 B5 30 00 FE 2F 2F A3 D7 6C 7F 46 8B C4 17 27 5F
 68 C1 B8 CB 91 3D 1B 26 D1 86 4D A7 D2 69 03 77
 A1 11 1F EE B4 37 75 09 28 A4 A4 B3 8C D6 A3 10
 87 CA 06 84 F0 59 63 23 BD B4 38 19 5A AB 74 C2
 6B 3F 82 66 DB 36 86 1B E2 7D DD A2 E1 22 10 B1
 F8 EF 70 40 3F 44 77 95 9A ED 49 9E B3 63 B7 B8
 4F 62 F1 3F B3 5D 0B 0D D2 B3 C1 2C 11 97 95 49
 C5 43 DD 7A C5 9C 1F 00 BE 50 F9 44 60 40 26 8C
 CC 2C 82 55 0C A9 56 FB C2 1F 75 7E 38 BE 33 B4
 65 DD 1C 72 19 EF 99 A6 40 27 99 BB 19 4D 89 28
 5A 46 D4 B4 02 E7 2E 19 FC CE 0F C4 2F 1A 43 5A
 81 58 68 9F CA 5C AC 81 17 72 89 44 FE 11 30 DF
 C1 BF D0 CE 54 E1 BB FF 7B B8 4E 4F 26 4C A6 CF
 FB 1F E6 99 35 EE 49 15 89 76 89 C8 A4 23 81 5A
 39 F6 73 00 AC E5 E5 4A 7E 14 29 7D 9C 13 37 1D
 52 62 04 AE 39 4B A3 4E 56 B1 12 2A 70 82 B0 F0
 FE 5F B2 B3 0B 2C 11 BA 92 43 EC F3 13 D8 EE 08
 55 E7 D5 67 FB 4F D4 65 93 64 82 F9 C7 75 25 0C
 C3 77 14 FC 07 48 D4 46 F9 76 59 E2 89 1D 15 6A
 D9 0A CE C8 F6 F8 C1 45 AE 8F 5D 7B 1B CF AF DC
 CC 02 44 A8 71 95 9F D4 D0 59 38 EB 5E B2 5D 4A
 A6 2E 46 7D 3C 2F 0C 58 1A 9D 46 68 C4 0A 5B 81
 E4 E1 46 55 32 EE CE 95 5D D3 7D B0 F8 3C C2 C7
 1D D9 87 14 F1 65 31 F2 BA AB 14 7A 1C 97 27 35
 A8 F4 CE 18 D7 85 38 9D 19 68 DE 57 E9 C8 86 BD
 8E 5B E6 3D 2C 62 61 53 B9 88 6E A1 3D 3A F8 25
 BA 6B EE E3 8E EB BD 50 E6 99 8A 5B 38 84 58 DA
 AC B6 38 12 1C 12 54 B0 62 07 B0 44 00 9F 36 48
 42 69 E1 D9 EE D7 75 C2 B8 FE F1 5B 4E FD 6B E7
 9A 13 59 4D DD 9C 09 36 14 48 1F EC 02 4E 54 73
 40 95 59 3F 20 59 A7 51 EE 32 50 30 A4 76 57 3B
 E9 56 1F 27 46 F2 71 76 C2 D9 93 C4 44 7D BB 55
 BE 76 E0 46 44 CA DC BE 9C 83 F1 C2 F8 C3 EC 77
 C8 46 69 25 4E BA 8C A2 F0 BF 79 71 D8 C2 70 83
 4F 2C 28 E3 6B B5 CC 95 85 94 9D 8C 62 D2 41 AA
 40 4C AE 42 C6 19 8C E4 A5 C9 F0 64 60 7B 9C 63
 F7 A5 11 73 83 2D C4 54 BF B8 4F FB B2 D1 09 F4
 D3 AD 8A 8C FD 0B 5F 0F C2 21 CE 54 46 89 6D 3E
 AC 64 29 73 63 DD 3D 2B 17 85 4A BA 1B 87 78 CD
 1A 8D 61 3E 18 6F D5 8A 4A 1B 0C 50 32 BD B3 E7
 44 82 FA 0F 34 54 5B 29 20 8A E3 68 E1 8B 24 EA
 72 88 45 1C 9F 63 4A 51 D5 56 A6 F5 2B D5 8A FF
 79 BF 20 A3 C4 01 6D 00 DD 27 50 20 E5 9A 2D E9
 33 7F C9 16 85 3A F1 0D C9 AF 6A F0 8A 2E CF 66
 A4 D2 58 98 30 59 E0 40 94 CC 2A A0 CE A6 5E 6D
 7F 72 63 08 D3 25 C5 9E C6 62 0F A5 E6 D8 F2 05
 71 4C 5D 71 D7 2F B2 CD FB 5F E5 00 38 EB 99 53
 D5 F9 E8 87 D7 62 34 9C F4 55 8B 72 6C 29 CB 14
 70 78 5D F8 85 AF 70 FE 22 4B 31 B6 24 0D 0D 85
 BF 8F 21 F2 20 D4 2A E8 68 0A 2C D7 74 B8 4C 50
 41 8D DB 23 E8 25 93 E0 C1 94 D0 2B 1E BF 5C 78
 08 72 09 29 5E E4 42 E5 78 EF 0E 24 69 3B 27 5D
 35 5B A4 0E 0E 4A 71 EF 34 03 42 CB FD 52 2C 1A
 04 15 C6 25 67 CC FC 63 14 5B 0E CE 02 AF 51 C4
 BB 90 B1 03 C0 19 85 19 5E E4 CB 9C D2 3D B7 C7
 3F 68 D5 08 77 86 01 67 4F 61 3B 62 86 80 17 CB
 AF 54 ED EE B9 7A 7A 25 38 ED 9D 16 8F 8C 10 6A
 0A BD F0 BE B5 75 14 DE F1 F8 2E 11 DF D3 91 AB
 1C C1 1D EB 35 F1 D9 92 A6 94 FC 23 4C DB BC D0
 0B E5 92 EC 51 00 0C C5 D2 72 CD 81 1C AD F2 C6
 12 9F 75 68 35 EF A0 D9 42 50 35 1E FC F1 B5 C0
 32 F8 50 3C D8 23 88 32 6C 5A F3 87 16 26 10 AC
 5A 83 98 91 28 95 5E F0 EA 81 F4 9E D5 0D 95 93
 BB 62 01 6E 1C CB BF BC 52 58 72 4C 50 1A 36 BB
 EB 9E B2 2D 52 5F 1B 11 9D 89 66 86 F8 7D 62 0F
 55 77 B2 07 3B 76 9A C7 F9 E7 56 BE 86 32 26 5D
 7D EA 98 51 B2 EF DD 37 11 1C 43 3C C8 F3 49 06
 A1 39 D9 AB 14 63 17 F6 DD 76 8C F8 BF 28 F9 94
 FB 32 CC 0C B3 B2 D7 C5 89 A5 F3 EC 69 7A 2D 70
 9C 11 9C 56 0A 22 9D F9 5C B1 13 76 72 9A B6 FA
 6F 8B 00 3E 42 C8 F1 B8 BB 4D 7A A8 64 83 EA E9
 35 CF 03 EB 39 32 A3 7F 70 79 E0 C7 F1 95 92 0F
 87 D1 B4 0E BC 3B 58 C9 6C C5 B6 20 01 15 51 C5
 4E E7 AA 9D 7B C1 F6 A8 7B 42 47 C5 E6 F1 BA C5
 03 BD 26 D1 3F DB 2E 62 9E 02 26 E1 DD 6E 6D 75
 F5 66 4A 2E C6 CC 26 7E 6F 93 40 45 5C 85 70 95
 4F 77 E1 36 AF D6 F5 6E E2 9D 59 FD 17 B3 3F D0
 5E C9 82 2B B9 78 B7 F3 AA AD 49 C8 6F 56 27 BF
 8A D1 BC 05 EE 23 42 40 87 DD 99 53 82 2F 72 73
 36 8B 5D D3 C7 08 20 51 0E 2D A5 37 43 0D 4B C9
 83 18 8D 19 94 1B D7 45 2D EC CC 36 46 DE 44 8C
 E9 4E 78 81 4B C8 39 3C CB 06 21 DF 5C 06 84 80
 C3 C7 BD E6 8E 4D 37 DA 01 49 D2 3D A5 71 11 45
 87 C7 48 EF 9A 36 07 8F 2D FA CE F8 B3 76 09 23
 BE 48 8C C0 4B 49 AB E5 90 E5 F5 8E B2 78 FF 57
 87 70 33 D3 93 E3 3C DD 05 F0 9E 31 9C 11 5A 95
 75 05 84 EE B1 3F 5F 32 0E 83 D3 3E 1A C4 63 27
 55 80 F0 54 06 94 4B 1C A4 2F 21 37 C3 1A E8 0A
 C4 0E 1A 22 16 37 01 DB 4A BF A6 EF E3 AA 01 C4
 42 2C EB EB F6 4A E5 DF FD 3D E0 AD 60 3C 3F 6B
 8E 11 3F 43 70 24 91 63 38 B2 CB 68 A1 67 82 36
 19 FE DE 7C 66 34 49 6B 38 EC C1 CE BD 56 EF 3E
 2D F1 96 9B D9 E5 56 9D 5C 2F 0B C3 5F D1 92 84
 EE 9A A7 93 A2 82 02 CF 86 FB 38 B7 5F E2 53 CE
 0A 99 07 FC 01 8B 30 CD 63 38 EB A0 C2 9A D6 D8
 43 D1 77 6F A1 2F 17 AC 61 C6 B8 76 DA 77 EE 6F
 83 70 4B DE 9A 08 33 FC FD A2 DC AB 8F C1 21 7A
 7B 71 E2 19 8B 32 52 8E D3 7F 52 56 D6 16 AB 43
 CF 92 3E 47 06 B5 86 28 F9 02 E8 2E DF D2 E4 29
 42 7A 5D 6A B4 23 54 68 FC 9B F6 7B DE 54 DF 5A
 6F 54 E5 CE A0 7B 85 B0 DA EC F3 FA A0 02 DA 7E
 9B 0B 12 6F 9D 08 7A 25 14 94 9C 98 CB 17 FA CE
 A4 6D 96 78 6B CB A8 23 9B A4 59 3B D2 A3 50 8F
 DA 2E EA 28 1A E5 9D 31 42 2A 93 88 54 C8 55 E1
 22 9A 78 E3 53 DF 6B 35 F7 9A F5 8D 3D EB 5B D7
 1C 45 22 9C 7F C9 DC EB 11 16 CE 17 3A F1 50 96
 25 E5 99 32 4A 65 4A 6D ED B1 21 E6 6D BE ED 06
 D3 C1 E5 05 8E B0 84 D4 A2 49 5B 85 3C 0F 5F 14
 C3 EB 16 D9 6A 40 BE 9F DE D5 33 B9 4D 69 EA C4
 A9 D5 4B E1 A1 10 22 A0 72 83 15 1B E8 B5 4D 2F
 11 2F 2F C3 F9 49 85 7B 9F B6 91 D5 4A DC D6 A3
 B8 C8 B5 DB BC 06 B7 28 E3 C1 D4 FC C2 A7 87 BF
 C1 0D 19 C2 0D 87 5C AB B4 4D A3 C2 96 9C DD F8
 1E 39 FA 89 EC 67 0A 7B 58 E4 2E C6 CB 65 B7 66
 3C 5A 70 B1 60 2B 32 A3 92 AF B4 D1 99 5D FF 2E
 D5 EB 2D D4 94 86 37 33 0D 54 50 49 F0 89 2D 17
 F9 09 59 67 ED F1 9A C2 E2 46 7F 4C 2C A8 B3 7E
 18 96 A7 01 56 79 EA D3 16 4D 43 57 EC 7E 8D 1F
 2A B6 B6 D2 CD 94 B3 EC DD E7 99 BF 0B D5 1F C6
 C0 4B 23 0F 8F AC 4E 57 20 BF F8 7A F7 C2 C7 60
 8E 47 5E 1E CD 83 9C FA 9D A7 98 E7 CE 4D 97 8C
 EB 3C D0 EB 97 B4 38 AF 3C 3A AC 81 DD 62 C1 C5
 9E F3 4C 83 F6 2F C5 4D FB 1A BA E3 DF AE 2D B8
 43 63 6B A8 7D 5B 52 74 EC 65 33 C7 47 E1 60 3C
 FC 46 B0 A1 D1 59 6A 2F 98 5B 77 99 9B DD BE F7
 24 47 FC 60 E5 A7 12 99 02 06 DF 12 14 9D F2 8F
 91 85 E2 A9 5A 0E 1D F4 97 7E E8 3C EF 1F 99 5F
 D5 EC 29 F3 0C FE E1 7D 63 1E C4 65 E7 72 08 E4
 9C 4C 40 30 6C 58 7A 3D 30 73 01 78 36 43 8E 4F
 D5 01 84 DA 9F FB 1E 8A E7 BB 9E F7 02 CE 6C 1B
 E4 F8 59 F8 96 58 DE 32 05 6E 25 F2 35 C8 21 EC
 88 4C 8C FF 55 E1 8B 14 2B 55 A8 51 2A 84 E3 9D
 8D FA 2E C9 72 86 95 7E 4C BB 4D 30 95 5F B5 D4
 33 71 6B BE D3 EA FD 01 92 B1 5B 4C 85 40 52 62
 61 0E A8 F9 83 67 50 B6 DC 0A 41 DD 70 8A CA B3
 3F C7 1A 5B E1 A9 E5 FE A2 C2 1C B3 BF DC 86 65
 12 58 A6 94 8B BF 01 AB 0D E7 02 D8 CD 1F AA 7F
 00 6B A5 A5 F0 9A F7 83 FE 24 DF 81 34 A5 E7 B9
 9A DE 6E 0A 8D 1F BD 4D 0B EE 44 B4 30 10 FC 65
 2F DC B1 AF DA 13 3A 9A E0 BA F8 4B 2E 7E DB 67
 DA 65 D6 29 B7 91 0F 38 79 F0 61 B7 74 A5 77 58
 0D 1B 39 1E 3F E5 6C 6E E4 42 AB C5 D8 8F D6 0B
 C1 2F 53 0E 9D CE AF 0A 64 A1 24 9A BE 90 C3 19
 81 07 4B 8D 5F 5B 46 CB E9 3E 3E 37 CE 4C 23 82
 89 CF 2E A6 42 7E C7 38 0C 3F EB F0 C9 1D 36 C5
 A3 F9 F2 8E 02 62 5F 1E EF 6A 00 C5 9D 1A 94 07
 6A 8D 1D E9 5F F2 48 60 C9 85 ED A7 55 D1 1F 98
 76 F7 F2 4A 98 CD 0A AD FF 99 20 7E C2 7F 7C 6C
 9A 9D B4 D0 E8 69 94 42 6D 13 48 69 18 AC 3C D2
 CC 12 54 73 D8 FC 14 DA 51 96 A2 A1 88 AC 46 97
 EA 85 87 22 23 F4 45 5F C9 84 36 E7 70 F2 72 7D
 0B F4 4B 77 B3 04 68 16 BB E9 BC 3C E2 6B A5 51
 7E 26 21 2F 85 6F 3C AC E0 79 F2 94 EE 19 26 F0
 22 E7 F3 6A E3 12 FA 99 4A D5 D9 04 6F B1 F9 B2
 2F A6 58 6B 1D 13 7F 7C D8 E7 15 D9 A1 7A D9 0D
 18 23 25 43 97 E6 31 42 DE 8A F8 B6 7D 67 E8 A1
 B1 28 99 8A A1 03 99 73 2D 1A A7 CE 10 2F E2 5B
 03 03 E3 05 62 2F 49 BD 8E 08 5D D0 89 97 7F AD
 3A 16 8A 1C 91 FC 05 43 F6 D1 F6 57 A4 74 3F 2C
 FD EE B2 31 60 F6 9F B6 89 39 48 62 89 61 86 2A
 27 C2 B2 08 93 C6 10 6B 3A 6A 40 52 F9 8E 1D 4B
 09 DE C3 B8 08 AA 11 67 CD 5A 46 0B 80 CB BA 7F
 11 5F BE 80 39 83 A2 CA C9 9A 60 8B C9 AB 88 19
 E5 B5 5F 0C B3 3A CA 63 8A 17 DC 86 96 4B 43 EE
 C1 A5 A2 3D DF DD 5A 25 7D AE 87 C5 9E C1 FA 6C
 2D CF E1 BA DC BB 8C 8D DE 60 65 08 AA A0 BA 59
 5C C9 CA E8 04 E8 7E 69 74 1B E3 BA F5 A4 8F 2A
 56 E2 F2 72 06 FD B0 22 47 2E 11 38 F2 6F E5 24
 99 9F 30 A0 CB F6 8C 4C A6 F7 FD CD B0 DF 61 2E
 7E 3C 3F 1D 79 B8 4F FB 48 46 07 3E A2 5A D6 94
 B3 10 DB D9 30 F2 65 43 38 32 D5 DB E1 5B 8A 63
 A3 9D 83 53 BD 03 13 C9 78 12 3D 8C 4E 7C 2C 33
 7D 30 90 ED 48 50 0D 31 2D 24 3D BE 2B E7 B0 12
 A0 BF 90 87 35 1B ED 10 F1 D3 43 FB D1 4D 61 57
 50 59 DB 4A 8E 42 24 90 AD C7 B7 BF E5 02 14 0B
 45 25 84 85 ED 41 87 7F AB 50 EF A6 60 39 68 41
 C2 DF CC 67 32 64 E0 FC 50 70 0B 26 EF 54 7C 35
 F3 39 F5 6F F4 E8 5C A0 1C 6E BC 22 98 F7 A5 45
 3E 3F 42 18 05 39 2B 1A 22 EF 58 A5 AD FC 81 35
 49 BD 03 DB 72 76 AB 3A 45 22 34 88 CE 26 87 7C
 71 07 2E AB 72 B3 60 E1 6B F4 29 38 DD AE C8 81
 D4 59 C5 45 34 56 C6 9A E7 D5 2D 15 17 DB C0 EB
 5E B1 05 E1 A5 14 83 86 21 59 5B 74 C6 0B 3E 7F
 9D 57 48 51 3F 72 83 F6 7C 0F 48 3B 6B A4 35 59
 FA F8 5A 4E E8 26 5A 74 23 8F E9 FA FD B0 BF 4D
 B9 FF 78 C9 7A 98 E7 CA 4A 6C 1C 62 EA 43 31 09
 8C 4A 05 34 B3 AA 20 FA B1 42 38 F0 AB 23 02 1C
 B7 C8 32 04 FD 0A F2 70 F9 FB 1E E8 EF 40 8C 42
 DF F1 83 A2 2D 6D A8 61 90 21 26 8C CB 72 7F C0
 F6 24 D6 FD 2A C1 7D C0 D0 24 76 45 F7 4F 2E 91
 21 2F 8A 35 86 1B B1 E8 E8 5B 7D B3 1D 8B CF 40
 B9 F2 C9 2C D2 31 F8 EE 9C 12 3C 0D 48 AC FF B3
 E3 47 3B 2E 1E BA 42 7D 90 D1 36 5F DB F8 E3 93
 0C 9D 32 FC 95 10 FE F5 E2 81 4A 86 00 A2 50 C6
 4A 2D 18 B1 E2 38 AD B6 6E 67 EC 08 8C 15 B0 E1
 CE 1B E0 F6 1E B0 54 F9 1E 1D 57 DB C7 64 3D 1D
 8F 5A 71 3E 40 AB AC 90 1C 5B B7 C7 48 67 51 37
 09 DB 38 44 D3 3B 52 AA F6 5E E9 18 F6 31 09 0E
 C9 22 F6 FE 7B 4F 84 5C 39 C2 5D 3E B6 F2 60 15
 C4 F8 BF 5F D0 EF F0 A8 95 AF 6D E7 1D 6D 2B EB
 31 CD BD F4 F7 89 BD FA E1 1B 8A F5 47 A2 28 87
 60 BF 7D FD D9 65 CF 6D B2 21 7D DE 89 2C 5F EB
 4B F6 FF 0D 55 E5 27 39 A9 30 75 C1 24 D0 F6 E2
 09 F0 82 92 56 D2 00 03 E7 BD 79 B9 C5 60 54 2D
 A9 3D 03 D5 24 60 5D 3E 2C 12 D6 F2 C3 BA F4 E4
 33 B0 47 17 57 F8 91 F2 B4 D7 C9 BE 4A 29 DD BF
 15 BA 07 07 E3 97 5F EC 3F 53 4E 8D BA BC 87 85
 54 A3 1A 52 E3 16 5F 26 1A 91 F4 BB 26 0F 73 54
 83 F9 66 4F F9 C2 65 1B 50 D1 7E 0B DF 5C 42 DF
 C7 C4 F1 7C 91 35 49 3E CE 99 64 AA 3C 5C 97 51
 F2 5A C3 34 D5 3E 6A 5D 3A 7C E4 04 E4 EA 56 1B
 31 8D 38 FD 14 89 E6 B4 DA FC 2B 0D CB 4C 82 88
 EB FC C4 9C 41 C4 0E 05 9E 8E 80 BD A9 77 AB B7
 32 F0 F8 11 B8 50 52 15 92 27 6C 9A 1B EA 61 90
 50 C8 FC 17 96 69 BC AF B5 A1 4A E9 D1 E2 E8 32
 04 81 AF 8B 10 88 84 DD 81 35 9A A2 B9 34 A2 04
 C1 85 63 38 45 1F 26 1D D6 8F D9 42 04 AF 53 B1
 7A D7 55 1E 52 63 46 47 F8 DF B3 43 79 F9 6A E6
 27 79 D7 51 9C 1E 42 94 EE 7D 28 7E AB 5C D9 F4
 D6 90 7D 94 19 0E 66 95 E8 F6 48 01 49 95 01 FC
 A6 60 AF 73 D7 CC 98 F4 91 A1 B7 14 8C CA 1A 9E
 E8 D0 FA 91 0D 66 BF 4F 01 A3 44 B8 D3 DF FB 49
 50 C0 A1 1D EC 5E C3 EC 63 23 36 26 1B 15 2E 57
 CD A1 27 56 00 60 47 16 45 3A 20 73 B0 9B 38 BE
 DD A9 63 43 DA 12 A3 97 62 11 77 F0 D2 08 EC 37
 BC AB 9B 82 C7 90 8F 56 AE A7 47 2B BA 06 FC AC
 96 C9 95 49 3F 96 66 5E 96 54 9F B0 D8 DE 35 77
 4C 0D 76 8D EB 20 10 83 F6 FA 42 47 91 BB CB 5B
 DA D4 12 84 B8 68 DE 5A 8E B4 A2 9E 41 0D CB 1E
 56 A9 54 BD AD CA 0E 34 41 90 3B E7 86 D2 E4 B4
 29 4B E2 60 37 03 3E 73 70 20 B8 9C 87 78 36 33
 65 51 2A 76 C0 EB AB 9E 40 04 5A C6 60 2E 20 6B
 B8 29 DF 45 79 C0 9C DB 98 F5 EF 63 3C C3 DF 71
 BE EA 8C 1F 68 4A D7 8F AC EA D0 19 7B A4 3F 8D
 4F E6 7E 41 F8 5B 41 C1 DA 6A 83 3E 42 E2 2D DE
 52 5C 46 E0 39 73 8C 81 4A 13 67 99 5E C8 93 50
 22 4B E3 EF 5D 8F D0 59 3A 0F C1 8E E4 3C 1F 0B
 42 B1 5A 01 9D 6B C3 D1 3F C5 10 FE 84 6B 53 BB
 37 DF 54 B3 1A 53 0C 28 98 8E E8 3C 74 3B 07 49
 9C A2 7F 2D F7 9F 1E F8 1D 04 97 43 A5 D5 C2 84
 37 D6 CD 6C 2C F9 26 16 09 69 A4 66 4A 4F E5 FB
 B1 7A 8B 44 3A 0E 0B CC 89 10 49 54 3B A4 A6 6D
 26 30 55 C5 77 9A B2 1D B0 B8 0A 05 42 81 71 B1
 95 29 BB 10 52 4B 9C 5F F8 BE CB 6B 04 4D E5 6D
 DE 77 79 8D 3A E3 D1 A8 34 E5 89 22 9E 54 F1 59
 0F B6 F0 CB 1B 23 17 A8 D5 74 B7 CE EC E6 61 86
 C3 B9 E8 89 02 9C C4 1B F6 9D 58 CC 23 9F 03 12
 03 CD BB 39 55 7D 61 24 13 A5 36 B8 4F 95 E1 AF
 D1 1B 20 50 D8 A9 BD 78 19 B5 85 BF 5E 7D 91 E2
 32 CA 88 E7 0E 39 56 D7 70 CF 74 6A 73 3B FF A1
 3F BC 7A C0 B1 AF EE D3 24 CB 3E 7A FA CB 4B 8C
 F8 8B E7 37 85 C6 C2 04 C7 D8 CA 9B E9 E4 E7 47
 F9 37 92 17 56 78 84 9D 0D 25 75 4F 6B 6F 7B BB
 37 2F 5F 28 90 84 46 2B 8D EB E2 D0 26 A6 67 A8
 4F D2 DB 70 B3 E4 A4 FC BB 10 F9 5A 6F 57 2E B6
 64 ED 75 CB 7F 23 9E 9C C3 41 9B 7E 0B B2 A4 1A
 2B F1 AE 16 58 0D 02 04 6F DE 01 CB 2F 6C 38 3D
 55 8B D8 A4 95 1D DD DC 1A C1 6C 24 32 50 30 70
 86 22 86 03 B6 30 6C 9B 3B 0A C4 48 98 F6 C8 28
 EE FD 75 9F 24 0D 7C 0F A9 08 6B A2 8B 80 06 BE
 38 92 9F BE 19 88 86 8A C8 A8 FE 54 B5 4C 5F 6D
 1F 14 A4 FC BB 87 B7 CB 84 2D 37 35 C9 4E 86 CF
 09 E3 C4 17 A0 76 D9 C7 18 8D 1B 55 07 FC 55 AF
 73 89 2E 5B F5 73 27 FB 85 25 C5 0D 23 DA DB FF
 14 EC 00 76 A4 7E 03 FB ED F0 8E 04 F4 8D 15 21
 4F 97 ED C6 82 9B B8 F8 16 1E 32 BA 9A 05 6D B0
 1D 41 26 CE EC 69 76 8E 6E 63 DA C2 01 45 DD 09
 75 EF C1 03 64 B8 5D FB 6C AE A9 33 F5 06 1E 0A
 24 C6 14 E2 F5 7F 15 0E 61 B5 F8 1F BC 14 F8 CA
 9F E2 FB 53 2C 7E F3 8D F9 A1 BF 8A 7A FF 98 C5
 35 A4 5E 92 57 A9 CE 94 5F BA 8D DA 6F 89 7A E9
 87 B5 30 3E 98 17 68 EE 34 BE 69 A4 46 4C 66 20
 E7 2B 1B A8 BE E7 1F 66 71 DF 6E 63 71 9E D9 1E
 F7 31 FF 81 2E 20 07 59 C3 61 83 6D 77 A6 88 D3
 23 DC E4 C5 AC 82 F5 E5 83 7A C8 36 59 03 63 EE
 9C 4C B9 B4 0B 35 27 A8 08 CA C7 A5 CC AD B5 FF
 1D 4F F2 A3 D6 85 AD A2 A5 41 5B D7 3E 95 13 B5
 8A CC 65 54 53 FE 70 27 4B B0 F2 24 0F 30 B4 7F
 A9 6B 46 0C 98 E2 92 9B A4 4B FD 08 6A 77 0C 7E
 49 3D 15 7E 68 CF DF 54 62 33 5D BC 7E 73 1E 26
 53 A2 14 35 99 98 0F CA F1 87 BE 1C FB 45 30 05
 D0 D6 CB 26 B1 98 26 58 2B E0 F6 95 E8 D6 23 F6
 AC 46 FA A6 07 B1 18 CD 7A 20 D1 2C 63 4B 7C 48
 72 97 61 AB F1 14 CC D9 A4 ED AD A1 99 62 F6 20
 F3 96 76 8F AD 9B E4 75 50 40 A7 0D EE B8 7A EA
 A2 AE F4 17 3B 62 3B 8F 65 FB 5B D5 16 7A 9D 25
 4B 56 22 D2 CF F5 A3 1D 27 11 85 89 E0 25 4E 79
 3A 9B 53 DE 63 3F 08 DB 39 57 F3 53 02 CF 52 E7
* End 956456993 2885781349