* LTspice Encrypted File
* 
* This encrypted file has been supplied by a 3rd
* party vendor that does not wish to publicize
* the technology used to implement this library.
* 
* Permission is granted to use this file for
* simulations but not to reverse engineer its
* contents.
* 
* Begin:
 EC 00 8E 10 DC 71 0B DC A1 59 F5 0B CD 3D 2A 30
 99 BA BE AF 07 6E E5 11 62 C1 EB F7 00 FF C5 31
 E7 66 27 3D 0B 1F 65 92 EA CE A5 84 45 81 F3 F3
 0B 23 A8 3E F8 1E 6C 04 9F AD 91 0B B7 BF 29 80
 2F 8A 0B D5 58 84 8A 5B 5A F2 6D 1A 82 3E CA AB
 DF 05 7B 31 4B 69 D4 84 DA 10 D9 16 7F A1 AC 91
 16 1A 86 9B 86 48 1B A2 5A 75 BB 7D 73 C3 6C 0F
 8D 5F B9 59 F5 2C 5F 7B 1A 4D 01 43 B7 67 A1 15
 AE 8E FB 3E 41 9A 5C 20 FC 88 E7 0C 27 3F D1 20
 E7 92 7E 2E 6F D3 42 37 39 01 3F 40 36 A4 5D 21
 65 7F D0 F4 86 32 E3 EB 9F 3B 19 3E 1C ED 00 0F
 73 A5 41 C7 6A 32 AE CB 9B 18 24 F2 BB 25 39 F3
 B0 C3 ED BE DB 4B 49 40 22 3F 22 46 51 F8 46 55
 69 5D 9E 69 0C 26 76 3D F8 13 59 E1 7C 15 A8 D6
 C2 C8 76 84 93 EC B0 3F 8B 8B 6A 49 75 F3 AC 99
 A7 B2 6C CC B4 B3 E9 13 AE 9D AC 4C 1B 7F F9 AA
 B8 97 62 F2 C9 42 28 EB 7B 90 44 D6 9A 46 52 04
 EA F8 D3 32 B0 BA 24 BE B9 68 CD 0B 66 D9 C4 C8
 13 6E F3 32 19 C4 C6 D6 F0 93 90 70 60 B6 5A 1F
 A3 98 19 54 1D E7 2A C1 74 7D 76 D2 E3 30 58 C6
 85 3B 9D BE 8B 2F 95 5F A5 C5 F3 93 B0 2E 64 A4
 FA ED 54 B0 5E AC C9 71 E6 04 B2 6C 09 A5 A8 16
 F3 B4 B0 43 F4 51 C2 83 3B DA 04 34 11 57 EF A8
 92 5B BA 45 7D B3 97 0C F3 74 1D E0 57 CD B5 FF
 64 9C 2B 12 8C E8 87 66 2C 30 41 AD B2 B2 43 1B
 64 A8 CB 0F 16 5C 65 8A 0B 7E C5 F0 07 EF 4A 80
 1E B1 6F 70 83 CF C0 5C EE 92 F7 1F BE B1 FE 26
 DD 07 4B B6 E7 F0 88 5E F6 ED 29 F7 72 A0 10 76
 FE 65 2A B4 70 7D A5 42 9E 7E 61 7B E4 D4 6D 52
 81 C2 6A EE 38 44 24 91 7A 08 EC 4B CF 03 CA 00
 2C 7F 86 C9 4A 64 37 AE 3D 01 4C 8E DB 78 E7 43
 98 F6 71 65 A3 A9 0A 85 5D FF D7 2D 83 DF 99 59
 AD 9B 7A 44 4E 74 94 66 EC 6F AE A4 C2 68 3E 18
 80 05 55 ED 31 9E 1F 8D 12 75 6C 00 75 F5 55 A3
 44 03 3E 79 D6 EF BD 99 07 FF 50 E0 58 0A 18 E5
 0D C9 A4 BB 55 D0 9B 9D A0 F4 49 5A 96 26 F3 6C
 8E 4D B9 6F 6C 76 6D AE 1D 8B 30 49 42 73 E9 F9
 C2 7F 50 F8 78 A5 BC A6 C0 DE D3 D3 CC 00 6C DA
 E0 BD 63 A6 E7 D9 88 0F BC 68 14 65 6D 42 EC 2B
 AE BD 03 FF D1 0B B5 7E 1C D0 05 6B F2 88 DE BC
 65 0B B1 35 5E A9 26 A9 6A 99 C0 34 4B 5B 7A 01
 46 C0 26 C4 CC ED B9 6D CF AE 10 AE 1B 7C CD 10
 1C EF 9D 57 D3 EC C6 CB BC 38 13 23 47 87 E9 D2
 80 F6 16 C1 DC 70 87 2C 82 C5 17 49 C6 9A 30 12
 F2 BE 9D ED 9C C9 00 54 9E F8 F5 E0 4E 8A 5B F8
 91 93 65 9C 51 8C AF CE 01 2F 12 81 B7 3C 81 0F
 24 84 46 1D 47 A8 FF A1 1C 76 D4 BE 0F E1 B8 BA
 29 6B 0D 77 46 2B 9B D4 8E 2A 94 6C AC 1A 29 C2
 DF 84 34 23 8A 8F 3B 40 63 EE 69 97 89 F6 75 61
 F4 C8 29 DB 21 47 45 9E A5 E3 1D FE CD 02 40 E8
 B7 AF 35 41 4B A2 4B 7D AB 4E 62 37 C6 D7 3A A7
 E9 15 49 19 16 0E 0D A0 1F C4 D7 71 AD B8 13 DA
 FC C5 66 B3 DC 3D CE FD BF F5 63 9C A8 01 85 C5
 3C 57 FD 0D D8 4B D4 C3 D5 E6 4A 9C 62 BE C0 80
 FE 96 F5 90 2E D6 D6 A2 77 41 3C 9D 0B 55 98 12
 7D 6A 46 E8 E3 6D 0E 51 F5 AA AE EA CB 2D 4A D0
 69 D6 2C 44 9B F8 9D 14 11 82 5F 5F 7B 20 A9 E8
 CB 86 86 9F A0 41 82 2E 63 C8 44 37 81 9A FB DD
 A4 56 53 1E 57 95 95 6D 01 74 B4 A9 DD 4E 34 39
 9B BC 48 D1 81 FA 70 18 2D F9 AB 43 74 99 0F DA
 45 1C A2 6E A1 16 B7 84 0F 8F 11 95 24 A9 38 B3
 BF 50 51 42 74 E0 0C 68 A0 D3 40 B8 11 B4 C8 0C
 DA 38 A1 46 BE CA 01 32 4F 47 5B E6 C3 BD 20 3A
 26 1F 69 5A C8 5B DF F2 F3 96 35 25 4A 0E 56 D8
 DA A0 94 01 F6 80 12 30 DD 73 B1 53 7C C5 31 43
 79 5A 19 0E 24 AC 02 42 9B BB 84 0E 5B 96 60 37
 61 58 69 87 7A 49 F1 AD 3F 39 5A 58 1B D6 07 CD
 0A E9 54 EF 0D 5F B8 3E 89 C9 53 7A FB 5D AE 42
 00 CE C9 7C 26 28 FC 73 3C 54 22 73 80 CD AA BA
 27 7D 2F E2 CF 06 44 B3 26 40 16 5E D6 CE FB 7C
 99 C7 87 D5 0F 0C 60 6E F3 7B 1E 2E A9 28 30 FF
 0B 4F 00 E3 AE 47 19 DB 10 DE F6 94 16 BE FF 6E
 8E B7 5B 6B F2 EE 3A EE 63 13 52 97 EA 56 3F 91
 DB D7 B2 43 FD BC EA B2 15 EB 88 A4 13 87 5A 33
 0B 26 7C 2F 88 A9 75 F4 FE 9E 50 8E D3 75 48 30
 BB EF B4 FA AF 02 7B 6C B0 4A FC 1B 32 4B 8C A5
 3A C0 39 5D 4F EE 18 EE FC 8A C3 6F 2F 34 77 00
 66 B1 D6 98 DF F6 83 D4 45 F6 96 83 7A 53 05 BB
 0A AB A6 6D BF 8A E5 5B D0 9F C5 CE 06 D5 6D B3
 95 FF C9 4A C8 CB 2C AF 2C DC 59 F6 27 CA 73 46
 26 25 98 04 D2 B2 F1 E7 1A 77 F6 5B 02 4F EC D7
 05 27 A5 9F 21 BA A1 AD 9B 82 68 F7 D7 66 24 C1
 E7 9E 00 02 EE 7B DE 4F EE 3A C5 E2 1C 50 80 04
 33 4B 6F 5F 2E F4 68 DC 9E DC 87 24 87 01 5C F7
 E2 14 53 71 31 D4 1F 38 56 60 43 76 04 E0 4B 1D
 62 3B 3F 2A 4B 4E 89 B2 AC E5 F3 13 EE 43 24 EE
 C3 8E 70 12 1C 50 3E 2C A6 F3 47 E9 CF 84 A7 8E
 EA 3B 17 72 D8 A5 40 9C 8F 0F 87 59 15 20 1D 99
 4D 2D F1 3F 2D 1F 9B DC A3 A0 BB 7E 1C 2B 02 1D
 97 9A 6B 77 C7 1D 7A 5B 8F FB DB 55 48 B4 E3 2F
 89 76 85 14 20 E6 A1 4F 69 86 77 E2 F3 DD 70 57
 7C 03 28 D1 55 09 A8 AE 78 A0 43 8A C5 28 2B D4
 38 B9 FF FA 1D 69 42 6E 8A BD 0E 9D B2 43 F7 30
 65 7A 44 58 E9 DF 5F 88 6A F2 01 89 48 10 B4 0C
 27 94 E3 C3 6A B8 B1 2D 0E 27 47 AE 6B 80 5A 08
 EC D2 69 25 70 5C C8 22 12 68 0C 88 08 75 3D 17
 EA AE 55 35 4C A6 88 39 16 C2 B0 46 7A 75 F3 62
 82 EC 35 14 85 B5 E3 80 CD 51 E2 98 51 CD 98 26
 07 42 50 DA 86 3E 10 B5 E7 7D DB 24 30 55 D5 CE
 56 17 1F 51 A7 0D 0B 8F 15 A2 9D C8 D8 29 99 5F
 5B 80 9D 4B C1 7F EB 27 4E AC 33 CB 82 40 D6 0A
 AD FD A0 2F FE 81 57 49 E5 CC 2F DD 25 E3 57 79
 03 31 C7 48 19 E4 11 36 7B 62 7B EF 27 44 24 C6
 19 DB 4A 82 06 E4 93 A2 85 CB 3C D0 C0 8B 16 BE
 39 51 C1 96 07 2C 45 3E 4B 6F 89 9F 19 AA 9B E1
 C0 90 07 14 F7 DD F1 DC 59 5F D3 1E 07 7D 2A A0
 4C B6 E6 45 49 BC D3 AB 0D B3 B1 E1 25 E4 53 3E
 1F 40 19 01 13 40 4C 16 82 50 16 F7 C9 0E 02 4C
 41 E1 3E B0 0B 35 C2 CB 4C 33 C4 32 6A B7 C7 29
 42 DF 39 85 F3 B4 46 22 45 64 E5 A8 59 CD 95 75
 98 0F 52 59 59 65 36 4E 23 28 42 DB A5 C3 BD 47
 95 B5 C0 D4 32 88 B0 1C D5 1C 1C 0A B6 FC B5 D6
 55 79 FA D8 D0 BA CE 98 EF 22 4C 26 83 BF 9B 35
 55 C9 20 4F CD 87 70 4D 77 F8 CE C0 46 8B C9 9D
 A2 13 13 80 40 AF 33 98 2D 7E 9E 15 C3 CF F5 34
 B9 62 D7 89 27 91 D3 38 4C 12 E8 B0 6F F1 74 E4
 F1 8E 48 16 89 87 FB FD 0F F2 FE 7F 54 78 29 76
 4A C4 6B C3 CB BE 0E E9 C8 A0 72 5D AC 70 9A DF
 D1 D0 73 DF 71 77 CC D1 8D 64 30 9D 42 2F FF C9
 C5 E4 EB 9F 0E 7D 42 FC 9A 6F D0 82 88 4F C5 C3
 C4 40 52 EE 31 94 AD 70 C5 69 F7 47 7B 77 B2 7B
 E3 9D FD 19 DF 3C C1 0F F2 75 50 55 8F 01 AA F4
 AA D6 C8 14 9F 43 C6 E7 10 C9 25 26 18 0C 52 FE
 86 C4 29 8E F9 F1 31 09 D6 66 F6 01 FF B2 44 5F
 9C F7 D8 18 98 B2 D8 17 04 92 44 E6 3B BF 65 18
 A7 F3 EB 37 52 C9 E3 F4 B1 23 E7 2D 92 99 84 D4
 B1 15 E0 BC E3 7A 77 88 3F 35 37 83 F9 2E 7D B6
 0A A9 3E E9 A1 91 FD BE 08 82 56 2B 50 17 FF 34
 53 F3 0C F9 65 44 02 33 04 3B 84 78 2C 82 E2 0A
 E5 76 F3 3B 75 55 07 51 26 D5 F8 E5 AA 0E E9 4B
 84 81 3C 85 03 D2 34 6A 02 99 AE 27 14 88 08 5E
 1F 06 7B 34 DC 26 33 5C 6B 26 52 F2 FF 45 E3 FD
 50 BD 0D BD 46 2B 07 C6 DE CB B6 46 43 EC D6 6D
 F9 83 29 82 92 D8 A8 87 15 17 E3 09 D5 7D 5D AC
 4A 62 F6 D7 2F C2 A0 5D E4 93 C2 3E F1 00 4D BC
 3B 15 72 7F 35 8F A5 98 A8 35 6B 7E 33 79 0C 5C
 1A DD AB A7 D6 2A 08 9B 05 F4 61 64 BA 45 3C 3B
 E2 00 FE 9C 85 80 5B C9 33 7E F7 5B B6 E7 18 32
 95 87 E0 3F EF BA 72 71 F6 BD 72 0B 46 4D 89 61
 43 24 78 6B 92 A7 1F C2 FD F6 1A 28 FB 11 35 92
 CB 43 74 15 30 ED 3C 07 D8 9D 8C 0E AE EA 0E 02
 08 6F 8F CF C1 61 05 12 28 DC DF 04 6E 79 3F 3D
 2C FF 37 30 44 92 E8 56 FF 05 FC C2 70 5A B7 2A
 DB 80 02 B2 31 65 86 D0 09 66 D4 77 3B 86 88 CB
 38 AF F5 D3 C0 0D 19 1C DD 4C 94 3E F8 91 5F 2C
 97 C7 95 9D B3 9D 4C 43 93 BB 02 4B 20 CF 26 6B
 E0 3C EC 50 44 1D FE EC E5 72 CB DA 83 39 0C 7E
 CA CA 2D 80 D2 47 53 D3 D3 DF E7 66 FD AA D7 C7
 0D 06 21 19 C0 98 28 53 D7 7C 36 42 FB 90 D7 4B
 D0 AE 45 D8 6E 37 A8 5E CA E0 76 20 A6 96 22 29
 69 BE 29 71 5C 93 F2 60 5D 3F CE 43 63 0D 7C E5
 E1 39 6B 52 26 C4 65 20 CE 25 B0 7B B6 4F DC 5E
 81 18 F6 48 CF A6 59 F2 19 52 0B F6 EE EA 6B 3C
 64 98 D5 98 CF EC 1E 5D 59 EB F9 1F E9 1E DE 92
 B8 84 0A 12 4A 61 58 90 25 DB 36 F5 FC 6F 9D 12
 A7 61 B7 7E 1A 43 61 49 CE 3D 74 BC A8 6E 65 E0
 E8 4E 76 06 4A 87 7F 40 ED BE F7 97 53 20 EE 30
 36 3A 4B F4 1A AA C0 9A 92 DD 04 59 A4 E8 36 76
 5C C9 97 DF EF C6 5F 0F F2 24 75 7B F2 87 23 26
 90 DB 79 18 8F D4 47 A1 F1 47 78 E6 D5 A1 60 94
 9D B2 E3 06 71 BE 68 C2 11 9E 6B 47 7F 6A 66 85
 42 A0 9F 79 9E 07 3D 98 3F 0F CD C1 71 CE 1C AD
 82 76 CC 70 0A 75 1E 53 1D 7C 48 33 78 F8 3C 60
 7F 28 F7 8C 5C B0 40 C0 CA C6 DE 40 2B 5D AD BF
 C2 6E 81 86 7D 9F E9 77 21 2E 76 07 BA EF 74 A6
 63 9F A5 AD 67 5F C7 E0 1B 06 8F AC 3F 2B 6B B4
 58 A7 D5 1A DC 66 0E B4 72 94 69 49 F8 E7 E8 8D
 06 BF 48 C2 FB 77 31 6F C6 AC 1E B1 C5 5A DD 5B
 DE 57 B6 87 9F 26 E5 C5 F1 75 B6 6C 50 3B BF 99
 70 F9 E5 DA 2B 0A AA 0F B0 E3 78 07 8F 2C BF CE
 8F CF 1B AC 53 F4 77 38 45 54 87 48 FA 57 F8 5E
 13 64 44 0C 33 0E AE 4A 0D B4 E5 CB D4 A8 4E 9E
 9E 4D 80 14 7B 90 0E 71 58 BC F4 D1 94 B7 7E 55
 5B 20 06 8D C8 81 2A 8C 5A 65 CE 80 79 24 FD B1
 CD F2 F6 F9 16 1F 11 15 26 8C BE B7 85 B5 1A F2
 16 77 C8 C3 66 6F AD 07 F1 AB D4 A4 D8 B2 08 1D
 F5 C6 18 F1 62 29 5F 17 EF F9 37 A2 67 01 4D EF
 9F A9 A6 1A E8 2C 2A 61 C8 06 FF D0 E8 1D 38 0F
 5C B9 AC 6A 6E 3C 5F 6C 64 75 C8 64 D2 73 79 2F
 C0 5B 18 20 22 88 15 D9 0B 3C 4E 6C 98 72 CD B6
 E2 AA 8E 26 98 69 E7 8E ED 0A EE B4 84 AF 29 C3
 5D 76 1D 21 10 CF 31 CE 54 2C 46 70 41 09 B8 B5
 6D 2B 58 3A 3C 9A 03 AF 72 23 CC E6 38 60 AE 5A
 FB F5 B9 10 09 C3 0A 8E 15 57 B5 AD F2 84 A7 B5
 30 2D A5 99 8A C0 31 24 A7 25 F0 24 56 CF BD 05
 DA B7 A4 F1 E7 4A B2 67 6C 66 21 47 62 A5 6A E5
 71 18 68 3B 2A B6 0B F2 8F A0 03 2C B0 92 2E CF
 FD C4 0B 4E 0B 63 CB A2 F8 39 63 F1 A9 90 8C 66
 FB 39 A9 AD D6 45 CF 01 26 CA 4E 00 14 14 11 6C
 26 86 E8 3E 59 EA 93 74 9F 85 46 77 C1 F9 97 B2
 05 2D BD 07 A9 D0 FF 62 B6 7E D1 39 A0 2E A1 99
 B6 2B E7 FF 66 66 2B D6 B2 5F 1B 3D E5 41 3F 2F
 EC 14 0C 6E 7F 92 82 AE CD 20 44 F2 E5 EA 73 82
 8A BF 9E 25 42 67 A1 04 CE 2D C7 39 B8 EE E9 2F
 1B 96 A1 08 81 E3 80 CC 8A 01 C4 70 00 57 37 FB
 2B D8 1D 1E A2 9D 90 E5 48 1F 7E AA 83 79 C6 D8
 84 01 BE C8 EB 0B 46 49 BE 97 2A A2 46 18 57 C3
 75 4F F2 21 5D 15 03 E4 61 3D 71 29 33 B7 34 ED
 84 B6 B2 F4 60 FC D9 96 25 B0 EA F0 64 FE 51 D8
 62 76 2A C4 93 27 27 D6 BE 31 1E 56 5C 3C 84 DA
 13 99 64 4B 20 B8 99 15 2C 71 39 24 42 E6 B0 08
 1F 17 8C DA 89 F5 2D 6E EB 82 54 74 73 95 BA A2
 4B ED 7B EA C7 E1 28 F0 BB 94 4D 22 A4 19 14 A2
 81 A6 C1 FB 7A 03 B5 33 AE 38 2F 51 CF E6 4D 9F
 17 C6 65 D7 7D E0 0D A3 B0 BD 5B 34 7D AF 1E 3B
 8C 60 F5 08 D9 C3 04 8F D9 F4 1B 23 B3 17 5C 7D
 11 F2 ED 56 24 60 64 58 DC A5 A0 D6 3A 09 29 75
 8D 18 B5 70 B0 05 B9 8E B4 40 02 9A A5 A2 C6 B2
 47 9B AB 7E 3F D6 C6 D0 52 2A 99 FE 4B B4 05 5F
 8C 62 C0 DD 10 74 3C 7A 98 8A F3 72 86 D2 D2 23
 59 AB FA 94 F7 1D E3 04 72 F0 31 80 A2 03 B2 13
 D7 2E A8 F9 39 5A BE E4 B4 E6 9C 49 AE CB A8 7B
 CF 70 F6 A6 B3 2C 31 57 D6 46 41 CC 08 12 E7 0D
 89 0B AE 9F 16 76 7E 1C EF 37 9D 92 CE 38 17 2B
 8A 7D 3E 0D F7 2D C2 21 26 DC 3D BD D9 4E 2B 4E
 7B 7F 11 16 A8 5F 61 53 FB 6D F4 16 C8 2F D2 46
 3C FE BF D8 64 D4 BD 78 27 B7 D3 40 3A A6 18 44
 50 97 10 32 7A 53 77 49 E7 2C 76 A5 5F AB 5F E9
 C9 76 99 AE 7B 38 AD F4 AF 4A 6B 6E DB 49 5A 7B
 DE 17 F0 63 52 2A 0D F1 98 FE 02 97 CA D8 74 E3
 C2 8E 59 D9 C4 BF 44 88 B8 3F 1C 6F BB 85 91 92
 D9 A4 F4 81 1E 1F 39 E6 C9 EA 01 B9 2D 7A 51 3F
 2A AA 76 7B 18 66 75 01 7E 77 A2 7B 20 02 57 78
 AE B6 3A D0 27 13 31 14 B0 58 A4 BC B2 89 35 2A
 FB 84 2E FD B3 42 DE 24 1F 2A F0 6A AD 3D C4 17
 B2 7A 43 03 E9 B5 16 77 0A 69 75 6C 0D 42 4C C0
 17 FF B4 3E 5B 76 AA 10 9E D7 B8 CE 7D CE 36 BE
 E7 09 4C 05 60 73 76 E6 0D C1 08 6A 19 48 02 9E
 C4 F1 41 26 32 4E BD 79 58 8F C0 85 85 41 57 64
 6C 91 60 3A 61 0C 6F 3F EF D9 94 B6 12 E8 D6 46
 F8 A6 D5 E3 3F D7 C0 25 92 B7 58 10 84 9E 05 A1
 B7 45 6C 54 8E 2C 32 55 B5 9D 57 80 27 33 86 B2
 80 DA 61 3C 8F E6 2D F6 2F 2F 50 B2 BB 4A 10 AC
 BE 13 CC EB A5 00 39 5D F5 A5 A6 3E 11 69 FC EC
 44 93 9D E1 96 D7 DC C6 44 D7 75 22 33 9D E7 EF
 A1 4B A8 F5 7F DA 41 51 06 AC 3A 5F C2 A2 E8 51
 37 A5 C5 FB 92 26 3E 70 ED 86 C6 B3 A7 32 1A 41
 6A BE 61 4D 55 CC 46 9F 65 A9 87 CD 4B 76 1C DF
 74 ED DD 52 1F 52 EE 6E A8 E9 13 9B 7C 5C 10 0F
 E8 7D A9 60 E4 7C 33 D8 BB F4 A8 69 AE FD 35 6E
 26 A0 20 FB F7 A8 14 C7 16 16 DA 64 CB FD F7 3B
 A7 0C 7F 7A 51 8F 0B A3 AA 23 21 FE 2B 4E D8 91
 70 3F 6B 8E 18 94 08 78 D8 8B 01 7F 2C 4D 37 B5
 E7 18 1F 39 BF C0 07 00 BD FF DD D2 A8 B9 6C E2
 E2 08 E1 DC 82 48 DF E7 0B 79 AF 72 D1 C7 1C F7
 B6 BA CD 95 87 DB 64 03 D6 0A 83 2F 5A 46 51 BA
 97 DF 23 CB 9D EE A8 A6 35 AC 2C 12 CF A9 96 06
 1C 74 7E 09 0F ED AC BE 36 86 A8 E3 F3 43 92 A8
 0F 98 30 43 43 DF C9 6B 1A D5 6E E0 49 D9 B5 E7
 80 07 BB C4 1E B0 FD B5 FC E8 BE 2A 93 DA 0E F0
 B4 D1 47 F8 56 50 19 02 29 CA 0B DA CA 1E 6B E4
 F4 41 3B 00 EA 58 4B B4 F7 20 7A E9 BA 92 A6 E7
 30 84 35 F7 AC 1E B1 F2 F3 D5 37 77 5C F1 52 5A
 FF 20 EE 97 65 36 0E A9 8D D6 A8 B6 D3 D7 F4 3C
 DC C7 84 43 1F 71 CF 84 C1 61 CF 22 F9 67 D0 8B
 C2 13 E1 A0 12 E1 15 4D 1E 8F 16 24 59 9B 05 F7
 64 01 F3 C9 53 ED 56 0D 2B 9B AB D5 AD C8 74 60
 5E 95 B9 B9 A2 65 75 B0 E1 CC 1F BC 02 B6 9D 74
 5E 6A FD 35 A6 FE 91 BE AF BF 53 29 B9 0B 7F 6E
 9A 9A 5C 79 D3 48 C7 9F 99 F2 0A D7 FD 69 50 B2
 62 CF C3 75 FD 96 1C E5 DE D7 2C 23 55 B1 9C 23
 6E D3 EB 71 94 7A D6 A4 FB 78 C6 26 52 B2 19 3D
 19 0E 71 FA 3A 90 86 E2 8B DE 34 B7 89 59 6D 8B
 C4 83 B2 BA 8D 3B A3 81 C4 DA 35 93 F4 C1 D7 35
 A1 32 71 3F 06 17 0C C1 54 A3 3B EA 61 9C 9B D7
 44 AA A8 FF 5F AE 9E AC FC 07 A4 13 16 BD AF 2A
 09 0E F8 DB 25 81 B4 E6 46 09 79 63 B5 58 7F A0
 28 02 B5 C8 D3 73 24 26 AA 21 F2 1F 57 24 0C DA
 FF 11 FA 75 09 59 46 25 A4 74 4B 78 CD 91 D7 60
 88 D6 62 24 79 9E 91 85 14 44 45 E1 6F 6A BD F5
 D5 BD 38 03 D7 D8 D6 A1 19 53 C5 2F DC 36 2D BC
 1D 35 70 A5 BA AC 01 C5 16 18 97 AC 92 6E 18 BC
 B1 DD 8D 73 80 CE 9A 7F 17 CD D6 EB B9 7B 74 A8
 11 17 2A 73 89 C4 14 75 8A AA DF 0F 4A 75 A0 E2
 79 A2 BA D3 7F C0 00 B5 62 81 4A 90 05 EA 97 C7
 02 3D A6 D1 E5 AF 50 F7 09 FE 45 77 10 DA 7A EE
 5C D0 79 15 98 37 1B D7 CD 9B 3C F3 CB 00 38 D5
 4F DA 4B 22 08 92 ED B5 4A A1 C2 80 B8 F8 FD AD
 01 15 50 C1 00 98 64 EA 4B 81 6F 46 4E 32 CC C6
 2A F7 50 52 25 D4 3C 52 7B BD EC 01 4B 57 D1 4D
 A0 2A 7C 71 65 0D 93 2A 13 B8 99 58 F2 E4 AA A1
 7E 7F 68 A1 3D 2B BE 5F A1 6D 0C 60 97 5A 9D C9
 21 68 D1 9E 77 2D E1 52 4C 75 E4 C9 46 48 61 15
 A4 BA BF D9 B2 F2 F3 7A FE 17 4D E5 E7 C8 21 27
 8A 08 DC 9C 14 4E 41 28 A7 D1 26 51 53 FE 33 F9
 96 ED 53 C7 D7 3E 9A A0 AF 77 B7 5F 05 62 37 20
 42 FC 21 9B 3D 1B AE 9A 97 4D 23 02 B5 9C BC 75
 0C 50 2A B0 ED 19 B9 65 D4 D1 91 48 94 F5 50 B0
 F8 57 B0 B0 19 9C 77 8E 87 83 DB B7 AD C6 37 23
 12 96 FC 33 37 3B E8 16 5F 09 EA 0F 94 E8 C2 4B
 94 FD 4D 10 32 E3 67 C7 B6 03 9E 32 9C F4 B6 2E
 57 7E 3F 6A B7 59 60 41 3C E1 DB C1 E1 9A 12 21
 19 BD 79 B6 6D EE D2 F1 B8 08 A6 7A A0 DB A7 78
 EC 1B 45 F0 A5 C6 6A 24 5D AC 0A 5F 78 27 9A 44
 85 28 69 88 6F 59 12 A5 D5 8E CA 20 88 65 80 45
 09 1A FC EF B0 C6 9B 1B 15 06 20 2C 9F 08 14 AF
 7D 4F 35 85 C5 2D AE E5 AF BC BD E4 EF 38 7E E1
 15 5C DC 31 CB 35 39 B0 10 42 87 A1 7A 0D C1 40
 A0 D7 ED AE F1 39 59 68 22 60 6F 5B 28 FB 12 A0
 03 77 3D AE DC 65 EC E3 BF 68 86 70 BE EA 0C 5A
 1B F7 12 91 18 82 7C 72 A9 47 78 5D 9C 9F 41 F7
 B5 FC DC 86 FF 76 84 19 CC CA 17 66 D5 CF F7 53
 84 86 1C 04 D6 D8 E1 F7 F1 10 94 0F DB BC 21 4E
 7B 09 5A DC F7 0B 1F 95 07 E4 92 15 AA BB B4 CF
 F4 65 FA 9E 24 8F B3 6B 4B 57 72 39 B6 11 3C 16
 1D 8B B3 52 F7 03 45 FE E0 F8 4B 85 EB EC 2C B4
 A6 5D 08 59 7A EF FF C0 94 B4 D8 93 0D BC 7E E2
 51 AE 72 D6 93 F5 EB 4B 66 88 2A E3 50 FA B9 60
 A1 FD 01 88 AB 85 9D 18 A2 4E 80 EF 5D 7D 53 AD
 1C 65 C5 50 30 7C F3 56 A8 EB 1D 0D 04 36 0D 6B
 F1 29 47 84 C6 3C 85 9F 76 0A BC B2 C7 19 EF 34
 0C 1D CD D3 C2 17 8C E0 99 16 83 97 D8 76 E4 2F
 34 0E E7 70 F8 4F 2E A3 9E DC AE 09 23 E4 AF EE
 00 42 09 2E BF 26 50 C5 74 CF 01 BC 3E 8B D0 66
 FB C9 90 DB 33 99 20 78 5F EE C5 96 A2 D5 B0 12
 BD 07 CA B7 34 D0 2E 6C 1C 8A F1 EA BE 42 FE 75
 28 81 98 22 F6 44 F0 A1 18 E3 AF 11 1B D5 77 6C
 34 5F E8 AB 65 D9 70 DF ED EA 42 E6 40 BF 36 4C
 C4 38 8C 2E 10 84 95 E2 16 3F B3 26 64 3E 72 6B
 99 4A 29 80 64 90 37 52 3B C1 2A 42 E5 8A C0 6A
 7B 33 20 FE 53 54 BF 59 E5 0E F8 1C D0 27 77 B0
 AC 33 9F 43 93 17 63 C5 28 FB 31 77 18 6F D0 E9
 A1 3C EC 2A 14 6C AD 4B 4E A6 56 6D 46 F7 85 E4
 F2 E1 2C 86 40 14 30 CA CE BA 06 CA 8F 2C 7F E9
 74 52 E3 17 25 F7 C8 4C AF 90 73 C1 F9 85 D5 C4
 C0 B8 87 A6 3D AC E7 CC 33 03 F6 D5 26 00 ED BE
 DE 80 F2 E9 E5 38 06 7E 3F FD A4 C7 D2 6F BC 8B
 0D E1 27 63 49 BF 61 A4 26 27 7A D3 1A 2B 0A AE
 77 9B D3 41 5E DC 5B 23 1E 2B 6F 46 D4 91 4A 81
 E6 2A 6B 5F 6E CF 8D 2A 04 9C D5 10 F3 E8 19 2B
 7A E0 29 CE 82 30 73 56 88 76 54 96 9F 91 E0 2E
 C9 73 82 6C 5F D4 9E D5 07 A4 8B EF 06 E7 40 A0
 D5 53 2A C4 98 5A 77 C0 D6 81 0D 9C 28 25 AD 95
 5A 5F F7 42 8A FF DB 3C A4 B4 5B C9 58 15 EA C6
 86 D2 82 46 8F B2 6F 0E 6C 9C 04 E5 3B BA 12 2F
 E6 C6 53 62 22 36 8E F8 CD DB 7F B5 50 97 E5 5D
 83 13 7A B7 24 DF B4 21 1A A6 80 85 AF C3 51 91
 46 81 01 B8 42 85 F5 2F 09 F0 C5 36 46 4C 53 B5
 92 7C 9D 6E 7C E5 74 BE 70 BF 58 49 47 F0 D2 2A
 60 25 C7 1A 81 74 C2 65 2F C8 C6 1E 1D C5 B9 20
 28 62 19 6E 2C 50 3A 5D 3A 39 FD 31 6C 00 20 C6
 35 F4 42 25 68 CF 10 E6 D9 15 91 B2 C1 8F 97 B2
 5C 33 2E 33 E8 50 06 12 60 66 1B 4F 71 D8 D4 67
 33 4F 11 D5 56 F7 C2 E8 8B 19 4B 66 A8 5F 33 D9
 7F EE 04 59 92 9F 97 10 B9 8A AD 8F F4 E7 C7 45
 3E EB 36 26 86 88 D9 A4 90 30 05 FE BE 00 20 01
 50 3D E6 07 85 07 94 7F 44 67 B7 10 6B DC 6A EC
 B9 7D 04 AB A2 15 95 74 85 A5 34 03 3D AD AC 06
 C8 84 B4 DB AA B7 82 BC A0 FC AD 59 63 D3 A3 10
 A4 0B 6B DD 75 D6 BB 76 0D 8B A6 7B A0 5F 54 F4
 A3 52 16 2B 76 9B 35 FD 14 F0 58 24 EB 3A 12 B2
 67 9D 87 85 00 B8 0A 68 E2 07 65 E3 A9 E4 41 EE
 C3 EE C4 AE 57 BF 9A 2E 33 52 C4 4F 3C AA CD EC
 18 54 3C 27 37 E3 F3 BC E9 B5 DC EE 01 33 AB 84
 4E C2 65 51 9D E2 AA 38 5F B9 B2 B3 0A 6A 79 A4
 F9 87 DF 7A 82 1E CC 9E 81 07 04 14 ED 27 22 28
 00 AF F7 C6 ED 34 F3 AC C9 33 90 68 1B BC CA 83
 B4 4F 3B 95 EA 5D 66 13 BA E3 A8 45 44 85 28 5B
 63 43 39 08 F1 B9 CC CB 05 3C 57 C6 B0 39 62 4B
 12 66 01 93 2F 74 77 8B AE 97 0D 1B AF AE 6B 86
 1B 08 1E F9 AE A6 7D 83 00 26 F4 91 DA E6 F2 1E
 8C 05 DC 12 D9 77 A7 8E 4B 5C C4 A4 33 6A BB 4F
 BF 38 6B F8 BD EF BF E4 C3 F2 4D 32 EC 87 5C C0
 45 97 D4 10 09 01 FD 2A 52 65 6E 1E EA 8B 00 4C
 31 26 09 79 B3 E1 7A EE A1 19 47 AB A6 C7 73 C8
 E8 9A 00 15 B4 8E 09 13 9D C9 93 7A 7B B6 83 B8
 C1 B0 FD BE 0C 4C C3 D9 5F 75 27 03 41 C2 F3 A3
 7A C1 55 C8 D5 5F F5 66 0F F8 C2 FC 53 B1 BA ED
 54 C1 6F DF 93 B0 90 FD AE 5D 51 5E 7B AD 96 6E
 FC 31 0D 60 80 F4 7C BC 72 C9 50 86 12 5F 43 53
 40 1D BA EF C3 88 89 8C C4 D4 3D D3 89 44 80 D7
 9D 15 74 25 F1 E5 9E 67 C4 61 40 8A 83 08 45 1B
 BA 89 D4 30 4F 5F 4A 8B 12 ED 1C D9 57 DE 77 BC
 3C 00 7D 4E D9 A2 53 17 46 55 15 84 CB 63 4A 61
 E5 1F D3 72 5B 73 25 22 50 27 BB 6E 48 B1 96 8B
 B7 FC 0B 36 6F 8A 26 9F 25 64 98 DD 9A 8E 28 E8
 A6 1E 08 CF 63 36 65 95 6F 96 57 A3 04 BA 45 E0
 C7 A0 4A AC 61 EA D9 A0 28 11 99 F6 63 9C 40 E5
 E1 25 F7 5E 7A 54 99 E8 E0 9C 41 FF 0B 35 FB 54
 F0 F5 D2 C8 20 C7 21 B8 EA C8 97 6A D1 4D EE 59
 11 7C A6 95 DC BB EC 14 BC 57 F5 ED DC 1B 3A 4A
 00 A5 D0 CB 98 89 77 EA B7 CB 7E 49 96 F2 EF 53
 98 25 75 1F 49 78 F8 13 07 D0 B2 21 68 FF 3E 9E
 C9 05 00 75 11 51 FF 7D B9 D1 55 DA 28 F5 42 BD
 31 9E 77 EA 8A F1 19 A0 2E 35 7E 95 9B DE 3B 11
 BD 30 B1 24 15 27 74 40 C4 43 45 49 42 15 BD 2A
 34 43 15 AF 7F B1 16 73 E2 59 50 C4 DD AE 40 F2
 AB 70 31 FC A6 4D 53 6A 42 B0 9B 2A D0 2F E1 AF
 54 1B 6A C0 97 F5 AE EF 92 8F 96 A0 AC 5F 33 A0
 F2 7A EF 47 4C F6 04 C2 72 96 12 1E 1F 4E 9C 2F
 8C 82 37 D7 05 7C 76 AC BA 66 3B 82 DB 1B F7 93
 18 62 5B 56 23 E8 C9 A6 89 62 C1 34 4D CC 8E 3B
 7C 85 F4 B5 AC 4C 61 B7 25 22 72 DE 44 90 7F 48
 1E 97 9A C9 64 35 52 9A F1 15 FE FF DA D0 54 0D
 6F D4 29 F6 2B CC 73 CE 73 60 59 BD E6 AA 5D 47
 35 34 C6 2D 03 45 4C FA CE 2B 72 16 8D 05 7F FF
 0E B7 87 67 70 69 96 A7 C8 B8 DF 42 A1 38 B4 6F
 C9 F7 00 D1 92 25 99 C6 E1 0A 60 09 B2 59 F4 50
 74 C1 30 6E 91 C3 39 58 5D F9 1C 48 6A 8B 75 1D
 8A 0C FA 6D C7 5F E6 23 B8 41 EE 51 B8 7B 75 5B
 33 D1 E1 E3 65 08 6B 37 BF 88 12 5A 82 3A 07 1A
 E6 9B 12 4D 33 5D 61 7A 1D 7F A3 81 E9 05 EE 74
 62 A0 13 14 FE FE F0 B5 44 AB 65 E0 2D 84 C4 2A
 9C 23 E1 CC C9 1C B2 E2 10 03 F7 63 B0 7F DB DB
 3B 8B 3E 11 3D A7 B1 73 0F 42 E1 4E 5A 3E 41 28
 3C C1 3B B7 3B 43 92 DB 57 BA FB C7 EA C7 0D 16
 36 8E 03 B1 38 B1 47 A2 60 54 B7 12 F2 70 7F 21
 0B 59 28 A7 93 90 B3 C9 9C FF 1F 9D 96 9D 11 64
 D9 79 3C 93 FE 0A 5D 22 0B 57 A2 75 66 78 E3 4E
 47 DF B8 C1 F9 36 A3 C4 D0 75 04 4A 46 EA 8E 0B
 DD 3F F8 0C 79 1C A2 94 22 AB 5D EB D4 7E 64 1F
 06 CC 2A 76 76 41 29 23 49 CA 3B 0C 56 27 7A B3
 53 15 9E 66 5F DF 37 5C F0 0E 8A C9 0D 42 53 44
 86 BC 6D 64 4F 83 3D 87 D3 BC DF 06 24 6B BC 01
 47 59 78 0D 63 94 AD BC 30 2F 1A 87 BA 01 2E 3B
 EA 2F B9 F0 28 5F 47 BA 10 3D 80 0B CF F5 30 F8
 E1 9C FC 8D 71 9C 3A 38 84 E7 39 58 72 B1 56 26
 7D BB B3 47 26 BC 95 0D C3 8C BF 79 CF B1 EA 2B
 F2 85 CF FE 5A 7C BB DB 03 1B E4 24 DD 8A 70 7A
 87 46 DB 1D D8 2C 07 97 C5 78 EB F9 BC 0B BB D0
 4B 75 CD 2C 89 54 76 C6 10 AF 4C 84 7A 61 80 26
 FB 68 8A 98 AD 13 74 A9 13 76 9A 39 CC B0 EF 6C
 89 4F F1 52 62 2B 8E CD 29 54 73 21 C5 81 14 3D
 69 AE 27 6B 4A 95 31 61 5A 4E E6 62 A4 E5 13 F0
 C6 F1 FD DA 17 1A 8C 58 E8 A2 6C 59 7C A9 F0 7C
 84 9E 87 3A B8 70 24 12 C5 E0 47 00 05 8E 7B DA
 ED 8A 6C 39 E9 D5 C7 61 A5 00 56 5D 61 9B DF B9
 C0 D4 BF 2B 5B E5 70 94 BC FC 76 4C 23 A9 52 47
 46 9F 52 F2 4B 56 6A 37 C7 E7 F5 3E E7 E7 C3 0C
 CB F1 A9 12 5F 16 BF D1 54 6E 96 F8 82 BD D9 91
 95 5E E1 EB 83 FB 7D 2F C0 96 3A 6C EB 8C 74 81
 C1 2C 5A 29 2C DF 9A 8C 30 0E 3D 0C E4 7E 55 7B
 27 2D 0F 72 44 68 0D 41 CE 05 60 8C 36 2F F4 69
 B8 24 30 11 50 C0 F0 C5 0B 1F 63 ED 83 5C 7F 10
 1E 88 0D EB 6C 8F 44 AD 0E C9 DE 01 9E 5A 3C 71
 AE 0B 3F 35 C7 A6 B1 C2 44 F7 26 91 BA EA 84 54
 1C 37 4C B4 51 A3 DB 4F 52 CB 0D 4E 01 20 2A C4
 A6 F0 35 83 25 5C F6 10 A0 39 2A 38 16 9F 01 83
 0B 71 C2 79 A4 DD 59 06 62 8A F7 A7 9B 79 F7 5A
 21 51 57 26 6F 0D 65 0A C4 64 FE A5 45 CA 6D 93
 CC 4F 54 E5 F8 3A CA C6 06 DA C9 36 43 2E EB 35
 BB AE 6B C9 AE E6 E2 0E E7 05 9A E4 C4 6A 9B 22
 D8 1F 08 0F C2 0B 55 88 AE E4 BB 58 83 3C 68 87
 C7 C3 F6 56 FC 9E 4C 86 6D DD 74 E6 A9 20 09 BE
 53 81 4F 66 83 D4 CE 60 0F 2B 5E 5F 60 AE 7E 9A
 F0 F5 A4 47 25 47 88 54 88 94 22 23 6A D5 10 74
 46 5E 9A 80 80 D0 B4 0E A6 D1 11 B9 60 74 F2 D9
 74 6B 52 60 46 85 41 E8 9B 37 D0 C5 4B 86 DE BD
 F5 C6 AF 07 C4 2F D2 6B D7 9A 66 83 AE 4A 36 6A
 1C 87 52 47 C8 1B A1 60 63 8F 79 A5 3D 71 E4 3B
 F4 9E 41 B7 2F B0 BB C3 D8 3B 68 7D 4C 46 7B ED
 85 3A 87 E4 4A 14 74 60 0A 45 0F FE 40 B2 8D FF
 13 F1 61 21 BF 7F BE 58 C6 E8 DC ED 3C 6D F7 1D
 A3 77 93 F1 8F 18 BA 5D 5A 17 DD 6B C9 90 A3 9B
 5E C7 1D C6 90 C8 69 BE D6 0F FB E2 20 9B 46 45
 FC 17 00 8A 62 57 2C 66 16 DF CE 5A E8 24 B7 13
 7B 3E 4E 0D 20 AE C9 76 AD 51 5E B4 E6 17 5A 6E
 79 BE BD 70 B6 8D 64 C2 82 E5 1A BB A7 3A C6 15
 17 56 54 1B 82 35 D7 ED BF 2F 7F 90 20 81 F1 17
 97 71 E9 09 E9 B5 14 7B 22 99 44 8B 2B 76 01 16
 50 05 C8 7A 90 3B 24 82 89 E1 B7 4E CA AF E4 03
 7F 5F 82 63 2E A6 02 DA 9C 75 C4 9B 4C 80 19 00
 3D 15 96 16 A7 1F D1 2D A3 FF 26 FA 5E AF 62 30
 59 D1 CE 95 40 30 FB 6F 87 DA CE 48 36 93 6D 68
 F9 B4 91 48 13 F2 90 5F 15 51 24 38 5D 17 D3 95
 F2 D4 CE 0A 4C F3 FA 67 33 DA 27 5D 15 C5 2C 82
 E2 C5 7B A8 BD 8F 52 12 6E 05 8A 46 FB 78 DE 4A
 18 E9 29 96 68 DD 34 6E 75 EC 78 82 56 F4 4F F3
 84 B9 EF 77 79 52 BC 83 E5 94 E9 80 C6 2C F8 2A
 6D 27 96 DF 6B 50 A1 5C 57 7A B1 76 CD 8E 7F E5
 08 B2 5A F7 C8 32 B1 DD 92 C3 E2 A6 D5 D2 E0 9C
 CE 05 CE E8 F3 66 0F F5 DB A0 C7 A1 5E 10 56 DA
 6C 16 5A 5C 47 F5 57 EB 5E 69 A8 46 B1 0C 54 80
 0D 50 DF 08 64 14 F5 D9 5E FE 0F 4F 32 21 08 53
 66 56 0B FA 4A 71 65 C2 8F E8 3F BB 34 D6 FB A1
 78 A2 8C 57 84 59 D5 13 00 26 E2 49 67 65 81 12
 73 45 C8 50 84 33 18 67 E9 86 77 8A 2D 7C 5B FB
 2A F2 F1 E6 9F 25 15 F1 6D 34 01 ED 36 BD 3B 88
 DB E5 3E CB CE FE 97 0A 8F C9 EF 43 D3 78 56 50
 A4 BC C6 D6 4B 70 67 1C A6 8D 09 08 37 60 6F BE
 26 16 22 01 A3 05 48 2E B8 5A 77 04 B0 61 4A 34
 F1 16 97 79 F2 29 18 4C 14 64 EF E0 4B C9 C7 FC
 EB 3B E2 F9 33 65 89 1B 53 53 60 E1 1E 97 A4 E5
 7D 62 77 35 79 1B 90 D5 4D 36 63 E1 1D D8 BB B5
 52 61 6A 70 88 C7 7E 00 8D B0 BB 61 CC C0 22 64
 6F E9 E5 9A 54 DD 17 AA E0 C9 64 D7 78 D8 CE 54
 85 E3 9E 11 F8 AA 27 81 8D 39 01 4E B3 87 60 2B
 78 A4 81 09 A7 AF DB BD 4F 79 A8 A5 6B 1E 97 BC
 81 4A 30 87 FB 4A 74 E2 76 7A 7B BD EE 35 20 2D
 79 E4 C7 77 D8 99 A7 75 52 E4 3A C4 91 BB E8 4D
 8F D9 F9 E9 9A 49 A7 48 3A 19 44 75 9C 96 B7 AF
 72 D7 6C E4 C2 E9 91 19 94 F6 BE A7 1F 87 59 71
 18 06 49 CF A1 62 3E 55 63 33 70 97 FA F6 CE 8C
 A1 5D 7C 31 F6 60 4B 8C 87 F7 DE 71 1A B4 D3 1E
 49 9A 93 F4 9C 93 C8 25 90 64 D5 9B EA 1B EA 73
 EB 33 43 4A BA 16 97 E1 54 A3 7F 91 D8 E8 68 2E
 CC 8E 8F 36 45 36 06 53 32 15 42 6A 6F 29 43 41
 E0 58 5E B4 16 B2 40 5C 08 B5 11 CA BB D9 C3 95
 7B 2B D1 D1 2A 60 A3 ED B3 37 F4 87 F1 18 FA 4E
 CA 22 32 03 1B A1 02 29 01 F0 58 95 A9 56 67 CE
 22 F5 0D 14 6D A3 6F D7 40 52 8C 4E 33 1C 63 C5
 A7 74 F1 BC CA CE 84 C8 62 6C AC 77 69 D2 AE C8
 92 2F 4E 24 DB C8 F8 CB AC 86 86 76 F1 9E EC AA
 65 EC 42 6A A4 35 CA 42 2F 4E B0 87 B7 3B C8 7D
 DA A9 6C 6A D5 FF 26 E4 8D 63 F0 87 BD AB 88 3D
 09 32 8B CC 80 98 17 EC AF F7 45 0D 56 1D B3 68
 34 3B A7 DB 80 D4 4E 62 F8 8E FF E9 76 B1 54 37
 91 39 03 D3 12 00 48 F5 B4 8A 28 15 EF 92 35 F1
 E1 C9 9E 4F 68 04 19 0B CF B5 87 10 AA AF 84 35
 17 1F 8F 1B 9E 6E 1E 5D FC E9 AD 9C CF 29 D5 36
 6A 6E 95 5B 05 4A 40 DB D9 67 3A 54 23 64 AF D6
 5E E0 15 D7 AF 5A 57 BF 03 35 95 50 A9 F3 87 4A
 23 D9 26 D3 4A F7 8B DE 86 E0 C6 3E EF 0E 76 C3
 71 D9 B3 E4 F7 24 4C F9 7A 4B DC 5E B1 40 41 87
 20 BC 1A 8E C2 E0 2B 31 85 45 67 E2 83 C3 0E 43
 CC 19 2D 20 86 02 D4 CD 4E D2 0C 2C 53 71 5A 48
 1E E8 79 C1 D6 DA 19 5C 24 9A 80 C3 F4 07 66 84
 1A 4C 0E AC 97 92 50 7D 73 09 1E F8 29 15 97 98
 92 19 1E BD FC 8F 96 B4 14 C6 FC E4 F2 94 49 28
 04 93 8F B0 B1 21 B1 C7 CA C7 0F 3B 81 02 82 C0
 50 5E D9 65 A9 F7 4B DA C2 EB 95 45 D1 54 D8 16
 7F 9D 42 17 8A 9A A8 37 8C 7D F6 66 19 E3 F8 28
 5E D1 D4 62 1B 05 F4 33 33 92 95 2D 43 C9 18 8A
 5B 81 4B 39 99 0B 98 D7 79 61 9C DF D6 44 B0 3C
 5D D3 0F D5 3E D8 64 CB 98 0B 11 7C AB E7 A3 F8
 E8 F8 24 14 9F 56 5B 0B D7 DE EF 34 FC 27 F9 9D
 FF AD 17 CC D2 ED 6B 72 50 4A 48 E3 E8 A2 0A 78
 C8 B1 3F 69 D8 EC CD 77 B8 85 38 2B AC 63 17 A3
 46 90 DA BD D0 5C FF 03 21 5A 70 BC D3 CD 6B 24
 2E 2C 29 AA F0 77 92 76 5F EE 9D 9C 15 D6 E9 E1
 1B 33 C5 33 72 CF DC 30 6A FF 32 27 ED 80 B7 49
 69 3C D2 37 B8 52 FA 9B 89 CB 41 AD 9D AB C1 2B
 ED C4 19 A7 91 B3 0F 68 38 95 2E 1B 02 F7 D2 8D
 5F 04 21 B7 1E 5A 1D C8 40 82 75 7E FF 26 35 6A
 07 83 58 24 75 B1 47 36 D2 DA BB 5E 43 4D 8D E3
 2C 68 39 01 48 52 9A FA CD 8B A6 CE AD 7F B6 61
 ED 23 A9 F4 6F 56 15 DE D0 37 46 CD 0B 44 B7 0D
 44 92 EF E2 3F 69 6A 52 1C AF EA 84 A0 DA 35 A8
 CC 03 91 C8 0E B2 2C 7F CE 09 95 63 6E F9 F3 6D
 F5 58 5A A0 A0 D0 58 2E B7 69 2E AA 72 38 F0 80
 50 77 B6 8E 92 AD BB EA 04 E2 C3 2D C4 15 0A 8B
 54 57 A8 E2 61 C2 CC 38 45 F3 89 7C 3F 54 1E D5
 8D 5E DE DC 8F 8A 78 B2 FC 53 23 4C 4C 3F 70 86
 29 83 09 66 74 81 64 75 F4 2F 4D 1F 40 25 E4 4D
 94 CF B2 14 D2 3A 8F 72 5D ED 01 D1 4F BC 0D AE
 51 B7 CD 1B 21 72 50 02 02 D9 DE C0 3D DA EF 01
 CA 42 4D 80 94 0C CD BC E6 22 A1 31 12 2E 92 E3
 12 6D 47 09 D8 CA 2B 60 3C 23 7E B9 F8 8D 2E 8A
 72 70 FD 17 37 74 99 64 84 0E 18 DB 3E C5 F4 41
 CA AE D0 A4 B3 09 1C 8A 63 99 58 FE 6B 3C D3 C9
 0C D9 CC F2 4F 1C 90 9E 0D E2 06 C7 99 A2 43 5D
 AC B2 61 32 DA 95 1D E8 47 7D 0D E7 6D 06 01 A0
 41 E2 67 BD 8A 2B F4 2E 4E CA 1F 11 76 F2 BF 07
 0D 9B 47 4B 18 3C 21 4F 2D 71 C6 24 23 5E 47 F5
 AA 3B D5 F7 6E 59 C9 9F 5D 03 F8 6E DF 8B 3C 03
 1F 9A 7F 14 F9 35 6E 89 CC DE 24 85 73 5D 63 98
 D2 22 A7 34 93 4E 25 78 16 1D FC F4 4A 60 96 20
 42 8D 8C 7D 13 08 33 88 2B 0B A3 48 B1 1F 69 45
 E0 1B 64 69 A0 0C 43 93 B8 31 52 F6 2D 53 7E F6
 01 E6 7E EC B5 FA E5 C2 B0 A7 E3 17 C1 D4 E9 32
 AA F1 32 BE 16 DC AD 34 58 93 33 11 F7 67 A3 E1
 45 6B B5 3D 6D C4 98 6A AC 8C AC 02 CD 18 F9 D9
 A7 EF 62 82 06 B5 29 2F 59 29 76 C3 F2 E7 49 E7
 0D 80 59 60 05 46 2D B0 61 46 7E F2 0E 36 91 B8
 FB 4B A6 DD 6C BC 68 8D 8E 9A BB BA DC 0E B0 1C
 73 9B 2C 11 18 5B C0 02 C9 25 4A 52 1E 8B 11 19
 BE C3 28 76 AF D9 EF 33 B7 04 9C EA 2D E7 B0 1F
 A0 70 D5 6B 59 8A 17 E9 2F 1B 01 9D 4B DB CD CA
 2A 87 E9 85 39 23 E4 71 B3 4B 4F 9B 01 8C D4 A5
 15 57 BF 90 AE B7 B8 78 13 7B AB 40 10 0A 60 EE
 4F 1B 0D 31 B4 C7 00 FE 60 B6 B6 21 01 F4 BD BC
 6E 66 95 90 95 9D 95 7A 6E CD 7C D1 F3 DB 28 E6
* End 2328789657 3594811249