* LTspice Encrypted File
* 
* This encrypted file has been supplied by a 3rd
* party vendor that does not wish to publicize
* the technology used to implement this library.
* 
* Permission is granted to use this file for
* simulations but not to reverse engineer its
* contents.
* 
* Begin:
 4F 37 F2 E8 8D F3 9C 61 C9 D7 4F 5B 60 D9 07 E6
 7C B5 D2 EB A0 E1 5E BD E1 37 96 25 7D 29 AB 27
 12 E3 C8 31 D3 DD 2C 12 DB DB 0A 73 3F A2 52 75
 61 51 4D 68 E9 0A 52 E5 65 AA 55 4A 33 D2 FF EE
 67 1C B2 5E 14 2C 40 A3 75 D7 77 B8 E1 61 EA E0
 27 5B 15 25 30 A8 12 3F 9C 09 C3 E1 8A BF E3 09
 39 13 5B 36 C3 79 68 15 28 E3 87 F7 3C BC 73 E3
 B9 DA E8 D8 FF 2A 91 51 52 A6 FB E1 35 FF 24 BF
 04 0E 14 0E 6B 2A 7A 33 C1 C6 04 FC 99 2B 98 B7
 51 34 6E CF F6 70 D3 D2 B4 55 E3 9E 8A 98 F4 47
 E9 57 6F 31 62 BB 15 0C 28 8A FA CC F8 1B C7 43
 E0 C1 0C 03 E6 4A CF CE 3B 33 FA 4F 0D F2 0A F6
 C8 B1 BF A8 23 CF 95 03 4B D2 1C DA 95 F1 B6 EB
 41 C9 29 79 DC 4F 24 C4 AD F8 19 2A C0 4A 37 B3
 24 25 F8 91 44 08 84 CD AB 46 82 A7 29 FD 2A B4
 2E 80 38 D3 C5 36 8A D0 F3 26 B3 F2 25 3C BC 7E
 0F 2F 8B 73 F6 3D 9E A8 DA E3 B9 DA B0 8C 2B 56
 75 88 55 05 F0 94 1B 4A 17 89 0B A9 04 E9 C6 0C
 D9 47 F1 E2 36 D8 64 72 78 AC 42 E0 52 58 56 9B
 3D 99 2E 5F 46 4F 83 0B 7B A5 31 50 E7 8C AA 27
 70 28 90 30 69 75 9E B9 68 20 0F 78 7C 2A D2 D5
 B9 18 E8 73 0B FB A8 8F 83 17 74 4D BA 8C 48 21
 23 03 2D 98 ED 68 4E 6F A6 F5 A6 16 B8 BC 1E C0
 49 1F 95 F0 40 55 A9 05 BA C3 77 CF F1 37 91 5C
 A1 E4 8B 0D E6 BE A7 E3 F5 E7 38 EE F2 F3 3C DE
 3C 89 D4 B7 BF 8C 0C F0 D1 38 05 E3 88 3F 0E A5
 C8 68 C0 ED 46 9F 58 26 24 DB D1 C8 11 DD D4 D1
 2B E5 10 31 1E E4 6E EE 14 63 C7 0E 14 ED 72 89
 96 CC 84 4D A4 7E 36 49 8D CF 07 05 96 73 AE 18
 46 45 44 2B 8A D4 48 54 2C E2 A7 92 A8 DB 51 35
 17 EF 57 8A 8D 98 26 86 6D D4 99 0A 40 8C 2F 4C
 B3 29 37 75 10 6C 15 E5 AD 74 13 0C E3 F5 84 65
 5E EA 16 1F 01 C3 DF 4E 75 89 49 30 CE E7 1B 93
 C4 4E 71 8E A6 B7 E4 0C 3D 61 87 14 27 85 61 6E
 92 E1 FC 9C 4B 64 89 45 50 37 74 23 8B F6 03 0D
 1C C3 3A C2 75 24 A9 E1 CB 02 55 CF 52 3B 3D 04
 24 13 80 13 9D 0D C4 CA 79 19 F9 14 E1 6C A6 EA
 01 14 4C F2 5F 12 11 52 78 BC A2 E2 88 89 12 69
 AC 0A 14 59 8D A5 95 9C 5E B6 2B 3F D9 EC 2B EC
 11 B2 BB 33 5B CE 65 A4 A1 65 7E 0E 44 39 08 50
 EE 5C 50 84 72 9A E0 D1 0D 2B D9 C4 64 3C C0 EF
 AC 3E 4C 78 A0 04 CF 8A 96 C1 5F D4 D0 42 D3 2C
 E9 4F 17 75 B6 BE 0F FE EA 79 20 80 98 37 AF A1
 06 73 72 ED 8C 9A 80 CA 7D 71 8E 80 CE FF EA A4
 4C 69 2C A1 75 55 41 B1 A3 B1 1A EC 4A 56 FE E2
 4E 96 3F FE 20 89 1F B9 83 66 2E 5B BC 7A 13 05
 8D D8 81 23 AD 3D 25 25 23 16 65 90 E1 32 BF C0
 F0 B9 65 44 A9 CB 51 09 72 DB 1A E0 77 12 55 1C
 F3 B7 5C 95 CB 0B 43 C1 36 60 84 D9 03 DF 84 8E
 07 41 27 A9 E5 44 95 23 12 EC 2E 6C F7 8D 00 1F
 62 B7 85 D9 89 18 13 54 25 FD 6C A5 F4 5D F3 6F
 AF DC 83 86 6A C4 74 6D 79 47 D8 1C A3 E6 62 26
 53 D1 A8 F4 CB B1 FC D5 42 58 3B 01 A9 16 98 F7
 AE CC 2E F2 C7 81 33 24 B2 69 4F F1 96 8C 2D 5E
 4D 20 2B 22 57 AC 1B 03 D5 06 F7 C0 55 EE 31 58
 21 3A 5E 73 27 56 69 2F E8 51 1E B6 46 0D 1B 40
 4C 1F 82 0D CB 59 D6 5A B7 D9 75 39 1D 62 92 B9
 61 97 8F 04 9C 5D 54 8C AF CD 41 00 C3 79 73 81
 40 CB C0 28 6D D7 A2 16 47 19 A4 BD 7D 92 2B 98
 FE 43 04 69 AE 2A 92 D0 E8 11 6F 41 09 39 92 64
 30 1E 98 00 B0 6B FA 28 52 A1 30 F4 BA 92 C4 43
 79 EE 31 FF D2 9B 2A 09 60 FC 5D 77 FB 90 8C 74
 65 E6 1D 4A FC F6 7D B7 E0 38 44 64 D8 19 E8 FA
 BB 78 9F BF 24 40 23 8B E8 DD CF 67 06 86 7C B2
 B0 C5 55 51 88 3E 6E 3E 3A 3A 20 E4 6E D9 D2 10
 10 91 8B 02 2E BD 79 F1 CF F9 5F 03 5F B1 14 BD
 48 04 6F 46 6A 08 6D 77 DF 4F FF 50 87 22 2E 39
 82 CC 1D CB 1A B1 C4 3B 48 64 77 0E 00 8F CA 5B
 94 1C FD F7 42 9E BC C2 77 7C C8 13 95 6C 6E B3
 96 11 E2 BD 72 0E 46 F4 71 20 DC 41 F7 C8 1E 72
 8C 79 42 72 DC 91 13 BA A5 56 74 51 06 2E 19 D3
 49 2E 83 AF 9A DA DF E1 24 22 F7 C8 8B B5 5A 9F
 08 75 21 F8 5D 09 6D 82 B1 AE 70 FE 4D 0E 8C D5
 8E 1C 3D 84 C6 52 62 08 59 04 A8 FF 60 8D 57 64
 A4 21 AF 10 DB 23 EE 47 81 21 14 EC DD 65 05 72
 45 D9 61 4B D7 DE E7 62 53 7E 0B A8 C7 C2 54 9A
 92 4C D5 63 A4 D7 FD A6 5D B5 56 C2 5D 85 44 3E
 70 F5 52 13 0F C8 27 8D 0F FC 9F 6B AD D0 A2 61
 7A C5 F7 F5 06 92 02 1F AB E4 EE 0F 4D DF 8C 33
 68 5D 85 9E 3C 6D 16 AB 02 9B EB 10 AB EC 2D 07
 E8 72 54 EF ED E6 42 C3 7C 84 F3 A8 F5 2B 9B 15
 88 14 85 6F 1D 59 7B 37 2A ED 76 97 76 95 3B F1
 D7 39 50 1E E3 33 19 96 66 02 39 79 0E 33 10 53
 3D DB 04 1C F1 25 39 71 38 87 98 45 92 86 AA 09
 8A 4D 11 57 70 0B 8F 0A AF 72 DF 32 C1 23 E5 31
 DD 92 5F 07 53 E1 1E C7 AB BC F2 03 3A 31 B4 D4
 C0 5F C2 03 5C 9F 7E B5 B8 91 61 90 85 C7 FC 78
 AD 71 CF FB 51 4A 41 D3 0B 22 BE 18 60 6D 6E C5
 2E E8 A6 3A D8 08 2B 57 40 BC 9E 0D A5 6A E9 D2
 9E 86 74 06 33 51 4C D4 67 88 DE 28 32 B4 9B 08
 68 DC D8 84 4E 42 F9 D3 A4 4F 5E 91 39 84 4C 2C
 ED 3B D1 3E 1B CE 65 B2 1D 6F F6 8A 23 70 F3 F4
 75 22 6F A9 57 E6 18 67 F2 B5 98 08 F2 7F 3B 71
 84 05 C5 C7 FA 27 06 0E 89 DC 82 2E A5 37 7C CB
 64 E8 30 1C 75 BC 3E D2 76 F4 E3 AC C7 55 03 44
 87 AF 33 6F 7F 2F 61 A8 DE 97 AD ED 7C D6 A0 27
 2F D2 8D ED 36 0B 7F FF 8F 9D C6 13 CC F1 C0 34
 C7 C9 FA 55 CD 94 42 E0 D4 30 12 C4 66 0C 86 9D
 9C CC A7 F3 F7 01 49 5A C7 F5 A8 9A 31 20 40 0A
 20 15 BD 0E DB 2A 97 FA B2 D6 E7 4B B5 C0 FE 8E
 CE D9 BD 33 5A 9C 60 64 F7 58 48 AF 6C 09 50 52
 62 58 A6 75 43 57 16 F5 52 89 98 52 17 50 3F CD
 FB 97 90 F0 1B DA 9D FE B5 DA C4 80 8E D6 47 5D
 80 2B F3 C5 3E 36 8B 6E C8 0D 3D 98 0D 64 63 BC
 1E 24 5A BD D3 44 A3 3F B7 0B A0 6A 80 38 6A 3D
 DF 0D A5 EA A4 AB 19 24 2B 68 A1 9B F9 E7 50 8C
 C6 37 31 DF 6B 21 42 87 FC 82 4E E1 72 66 AC F3
 EB CC CA A0 24 31 E2 33 60 39 73 43 14 09 4F 04
 B4 9E 1D 95 7F 1E 6D C6 12 E4 DD AC 7D C6 16 9E
 C5 AA 7B F8 36 37 B6 B2 E0 19 AC 51 67 22 56 A5
 92 2D E9 0C FB C7 CE D7 F6 79 8C 71 DA 2C 80 7E
 E0 C6 87 1F BE 89 51 43 69 A7 0A 4E 18 32 25 E5
 2C E3 E8 1F EE E3 88 61 FB 85 E6 AC 2D 69 82 58
 C9 42 D6 57 59 73 98 21 CC 4E 9E 4D 06 2A C0 87
 DD 84 88 7F CB CF 16 AE 1E 7A 63 4E CA BC C0 F7
 CC 2D EE 28 46 31 73 C4 4D 26 D2 1D 04 1B 6D 0E
 9E 70 EC 30 8D 7F CA 86 73 81 BE A0 51 9F B2 8B
 82 DB F6 65 8F D1 21 6B AE 51 49 0E F3 B1 B7 95
 93 84 5F D6 29 43 2E 2F 51 F0 4E AD A4 7B 7D FF
 EF 3C 08 8F 71 C0 EB AD 85 1D A4 32 0B D4 4F AE
 AF 6E BE CB 5B 3A FE 46 56 05 B9 A3 99 45 E8 FE
 C6 5B 51 4A CD A3 1C BD 8E B7 95 7E 6B FD B6 30
 DF 8E 42 49 BA 48 01 78 A4 35 A8 C0 45 CB 95 D3
 01 AA E8 BD F0 F1 5D DE DD B3 84 4C B1 CD D6 4B
 4F E4 2E E4 22 29 62 C4 96 30 3A 5D E2 54 20 84
 10 F7 5E 70 28 72 7F 1B 2F 19 AF 54 1C 94 02 5F
 20 F3 31 46 A2 A2 9B AA F3 D0 B6 1F 5E 67 84 53
 89 60 62 1C 40 79 52 82 F6 92 AE 91 5E 3E CC B8
 61 3A B5 D6 3F D3 5A 86 2E B4 BD 8B 8B EA D8 24
 25 43 0D EE D8 33 0B 7F F3 DB 1B AE C3 B3 7B 74
 BB 12 F2 98 F9 BB 8B 92 19 A2 2A FD E7 61 D3 0C
 FF AB 15 18 34 4C B3 48 A1 D8 4E C1 BC 43 E3 16
 B9 42 93 96 26 9A 49 8E 6B 84 F5 6C 50 13 7C 8F
 78 C8 5B 99 61 FD 2B 39 3E A0 CF 0C D2 83 37 05
 AB FB 59 48 7C C7 5D 62 BE 3B 46 8D 2F 98 88 37
 7F E6 8A 65 4F AF 93 BE CE EB 7F A0 83 36 0E 0F
 7B D5 7B C6 BA E0 2E F3 B9 BC D7 BA 65 7E 97 E9
 07 F4 67 6E CB D2 42 FB B9 91 C3 3F FC 31 C4 2B
 EE CB 50 54 5A 71 4D C7 66 50 2E 1D 63 DB 66 EC
 84 2B 5B 3A CA A3 38 4E F6 43 FF C1 5A 6D 52 C0
 E3 0F 20 AB 41 68 09 4C BD 2A 07 BC 7A 6E AD AF
 ED AE 18 41 30 97 B8 EE 57 DF 58 22 C8 9C 14 6C
 B6 5A D5 FF B4 83 79 3A 2A 5C 4E 2C 2A BF 86 CC
 0E 9A 5E 92 6C 1A A3 44 42 92 3F 18 E6 64 A6 85
 9F CA 43 2E A5 B0 53 7C BE 91 5C C1 9F C1 5C C8
 C7 E7 34 A6 ED 9B 9A B3 2E 30 69 7E C4 B5 A7 D7
 6B 4A 79 07 F7 19 4C 94 9D 02 2E C0 9A FC 5E C6
 F9 5D 07 F6 DC C4 25 D8 1A EC 51 C4 A0 5C 37 D0
 5E 6F 54 1D 11 F6 48 79 F6 98 ED 02 34 47 61 35
 BF 3C CE 0B C5 8D 1F 85 DA A7 F9 A6 93 4B FB F2
 22 AA DA C4 A0 F2 00 26 3B 7F D6 66 F4 7E 67 95
 D8 B0 F4 06 D6 13 E9 1F 68 85 5E BE BD 0B C9 A1
 2E 3D E1 A7 63 51 90 91 7A 1C 69 E6 35 FA FA 7A
 88 93 66 13 84 05 53 4D 1D 4D 15 04 36 5E D7 BF
 4A 06 E8 1A C7 52 41 2E 27 33 5E F9 BF F4 95 10
 52 EB 6B 26 B3 B0 D3 AF DB 5E B8 CE B1 46 68 EA
 BF C5 74 CD 01 AA BD 35 7E D0 3D 01 A0 19 77 D4
 7F 2E 69 46 1B 93 95 F4 51 80 D2 05 D7 96 5E 41
 9D 14 19 94 8C 69 E9 99 01 E1 B7 18 4F 6B EF D8
 72 69 49 69 06 91 92 D8 19 80 D6 74 51 D8 38 F4
 34 5E 21 F5 46 E0 D6 D4 14 E6 1C 78 8E BF 98 E2
 77 25 30 9F 90 71 1D 0C 5C 30 3B 60 15 8B 3D 0A
 5C B0 4B B8 BE 8F 08 DA AE 9F F5 BC 04 76 E7 59
 ED 8A B5 9E 7D 15 E9 AD 6C 1C 52 F2 AD 0E 0B E5
 12 63 0F A9 B0 CF 24 A1 F2 88 34 0A FF 72 69 EC
 0E 92 46 7A A1 D9 E0 AC DD 01 2B A9 E4 EA 1C E5
 D0 19 BE 52 35 30 BF 11 75 B7 48 50 44 46 F2 D0
 39 1D D3 B2 51 6E FB AB B4 6D 69 94 28 5E 85 02
 80 A2 C3 D5 CB 31 85 53 4A 22 77 0D 79 53 6C 06
 FB E9 B6 C8 D5 FA 8D 14 C0 2E 24 AE 58 E7 EE A7
 2A 29 F2 72 50 29 58 9F B9 B1 CF 6F CD 9E 2D 03
 C9 37 13 39 E4 86 B7 99 B7 9E B5 8F AA 99 38 F1
 72 42 16 57 D3 DB 8D C3 4C 7B 9A C0 99 33 5C B9
 95 5A 03 48 36 FC 38 FD D2 F9 CA 48 C3 53 D6 8F
 2A C6 5A 1C 2A AB 39 5F 26 41 C2 6E 3B 3B B2 B2
 54 80 3A 5F C4 5B 8B 3F 88 98 0F DA D1 6D B2 3E
 81 E6 BA C5 55 D3 64 34 0D AC 76 96 71 BC 84 D1
 87 EE C0 6D C5 B8 22 01 07 E6 32 F3 2D 48 9D 28
 B0 CF B6 3A F1 08 59 06 C2 D8 43 23 4F 58 91 53
 CE 0F 40 0C 3A F6 E4 86 A7 1C 49 EA F9 6E 28 5D
 14 A3 B0 F8 D4 52 91 C9 FB FD 8B 1F 93 B9 A8 DB
 F5 09 34 0E 52 D0 4C 67 31 FA 0C 0A 38 B3 21 AD
 92 76 A0 20 66 66 D9 51 3D 1B AF 82 95 C4 A4 12
 37 6C 03 BB FF 10 DD 29 20 98 6C 22 FE 3E 24 7A
 A6 B4 1E 4C B9 F6 56 00 99 56 97 CF B4 9E A3 67
 3A B8 40 CA B1 6B 17 32 D3 B6 0A 1F 3C F5 D1 89
 71 3F 93 F7 05 AE 71 6D 13 68 35 71 6A B1 F8 4A
 F6 14 13 EE AC 33 05 14 31 14 09 6B FB 6E 31 7D
 CB 15 16 5B 74 66 91 AD 8C C0 84 8F FB 59 AE 1F
 E3 DC 89 A3 B0 FC FD E5 2B 48 99 B0 FE 78 E6 CF
 76 5F F8 25 7F 8B 16 59 D8 A0 5F 2C 7D DA 49 1A
 D7 B9 8A 62 E7 D1 66 62 85 DA 9E 0A 0E EB 4E FF
 CA CA 14 AE FB A5 A1 90 FF E6 99 B3 E7 65 66 12
 5A D5 37 87 0E D9 FF 0D 6B B0 DF 28 25 78 3F BD
 E3 BE AF 92 C3 AB 5F 17 3C 90 0D 4E A2 BA 93 F2
 D4 9D 79 F6 C2 43 7F 9C 51 32 EB 6C 5E FD 61 9E
 AE 6D 1A 1E 20 6D B5 4B E3 DB 94 93 E6 CC 92 A1
 90 9A F5 21 D7 C8 AA B6 06 1F F2 BA 15 45 C1 AB
 B6 D6 6B 8D 6D 9F E6 0D 8A 25 6A 4B 8B CA 1F A0
 30 A4 3C 54 C8 DD 2B DC 48 99 FF 5C EF EC 79 FE
 7B F4 C5 21 07 91 E6 8A 92 4B 35 5B FB 3E 5C E6
 F2 75 42 FF 34 3C DF 74 DA 6A BB 20 9D 8A 47 E1
 16 83 25 CF FE 6F B6 9F 02 C5 59 7A 04 CF EC 3D
 1D 9D 5F 31 A4 8D F2 7E 4B 8D 5A 2C 5B 00 09 90
 3D EF 90 91 A9 74 82 2E DF 7B FB 36 B8 51 90 F1
 C3 6D 7C C9 F8 4F E9 35 68 FC 4C 55 53 F5 A2 0D
 07 18 BC C5 6A D1 1E 21 17 F7 BA 59 CD 45 74 3A
 BE F2 F1 70 26 BD 8C 2D 0A 49 AD 55 48 C2 67 2D
 A3 C4 2F 9B 97 F0 C2 D3 F6 32 39 38 5E 39 EA 2C
 9A FA 1A D2 C3 A5 88 D7 F4 59 22 46 76 7B 98 2B
 63 CC A5 CE 84 9C 66 19 26 0F C4 BE 23 C2 73 EE
 00 35 73 93 74 BB A6 04 56 20 C2 1A E7 38 A4 92
 03 6C E3 0E 78 24 70 67 44 12 54 8E 47 10 70 3E
 5F 90 C1 DA 1B 34 9D E2 DA D3 7C 7D AC 74 11 7B
 70 40 59 2C D0 11 0A 95 D1 44 50 2A 1A C1 B1 CE
 8A 4A F7 5B 13 59 49 6A 1D EB DE 1E 03 29 1C BF
 15 04 FE 8A A0 75 16 3E AD CA 66 1C 63 5C 14 7F
 BF 35 26 DA 92 7C F3 BD 7F 77 8A 6F 93 B7 13 4F
 36 A5 BB 25 F3 7B C6 4E 6E FB 3A E5 D9 A6 92 FC
 70 5B 76 E6 6D BA A4 14 65 46 0E 01 7C EE 94 3B
 36 56 96 FE 9F BA 57 A1 E4 68 99 BA C7 E0 A6 20
 56 D2 AD 88 20 73 DA 51 26 3F 8A 7C FB B0 A6 D0
 32 19 EE E3 A8 8A 70 E8 48 89 36 FF 1D E3 A2 BA
 01 9F C3 08 DB C8 31 DF 2C 75 6B 2D 12 D8 3D 30
 6D ED 6A F4 3C 24 B5 ED 33 D8 D4 C1 0A B0 2F 38
 D4 D2 F4 69 AF 88 23 0E 52 6A 16 C8 46 3C 1F 79
 1C 3F B2 9E 94 BF 8B DC 0B 7E 59 89 A1 E9 72 1F
 66 FA CE 45 47 03 9E 45 36 6A CA C5 DB 2B 4A BC
 FC D1 D6 43 38 39 BF 21 37 A6 37 12 F9 CA 9C 15
 14 3F 90 F1 45 11 89 D9 3C D5 F0 6E 10 1E 9D EF
 7B 0A A5 07 3D A2 A8 F8 70 50 21 45 83 4C E3 FA
 F0 43 C6 0D E1 4C 76 6B 5B D4 45 9C 7C E4 57 69
 EB 6A C2 B5 CD A2 09 1D 86 20 E7 30 86 15 85 70
 5C AA 91 92 43 A1 FE C6 EA 25 6C AF 85 DF FB 52
 24 DB 69 8E 1C 7B D6 DF A7 D0 F8 91 50 BA 71 79
 B5 24 EC 78 51 BD D4 93 25 AE BB 5C FE FA 1A 97
 9A 7F 41 6D 56 16 DC 05 E9 F9 C8 E1 26 15 49 21
 D8 57 9A F8 F9 40 E1 BC D7 57 60 11 9E C4 4D 8C
 E0 36 D7 8F 57 0B 56 DD 93 F9 A6 A4 5F FE 1D 9C
 E7 BD 36 55 CE EA DB B6 F3 80 AD 85 34 57 F9 D7
 2B C3 8A 82 0A 2F 8F D0 B0 2E 9B D4 9E 7E 30 D4
 86 28 62 EF 9B 55 B2 3F D3 FF A4 48 85 A3 AA D5
 94 90 BF 26 03 FA FA 86 F7 78 16 2A 49 9B 2C 7C
 39 7B C1 F7 4A CE 6E C2 8A 10 C8 AB 8C 7C B7 2F
 37 6C 19 AD 62 7E 8D A4 9F 4A 6C BD CB 19 4D 55
 36 0E E6 50 9B CF F9 E5 FE B4 B8 DA BC CC 1C C2
 D9 3E 91 01 2B 89 5A 41 D2 EA 91 33 E4 B0 E7 29
 8C 0C AE 76 89 7B FC 68 8B 5C 87 DD 08 C2 AE EB
 49 C3 0B 30 21 E7 05 C0 9E AA 7C 5C 0A 34 04 95
 73 19 B7 97 57 1F 4A 45 A7 62 E6 97 45 4B F2 E7
 A6 28 3B 33 B3 D1 2B 2F 33 6A 82 20 00 42 EB EA
 35 97 19 75 74 45 91 E0 05 07 6A 3A 40 DB 04 48
 24 35 98 19 45 FA 22 DB 6A F3 D0 70 56 56 E1 52
 12 FE DB E2 A5 90 9F B9 02 37 38 45 EF B8 EC 3C
 4C 24 31 B3 27 3B 3A 84 CE 48 08 88 F3 6F 9B 7B
 B4 E1 3B 04 49 16 5D B8 BD E2 9A F2 12 BB D7 FC
 C0 8F F1 FE A0 63 4E 26 E7 B8 B6 62 B5 63 E1 EF
 CD 61 5D D6 48 5E DF 00 12 72 2C A1 4E D0 B8 44
 AE E1 27 22 44 3E 2D FB 34 2A 62 FA BC 29 98 93
 03 F5 17 09 0D 5A F9 1E 79 03 4F 67 50 38 91 40
 8C B3 B0 9B 40 67 73 F3 32 41 28 50 5C 24 19 2A
 32 B0 DB 45 3D 5A CD B7 FE D4 5D 74 BC F5 B3 35
 2E A2 D6 66 BE 0A D2 2C D3 44 2C 63 B7 58 51 2B
 3C 00 83 C9 5E 75 E2 E3 42 F7 76 F7 71 09 19 B9
 C7 C6 92 4A CE DC 22 64 0F F5 CD FE 71 34 ED 2E
 77 6E CA F3 73 99 82 4A 62 BA F0 35 63 04 17 F6
 F2 06 25 6C B3 45 F3 5E 50 3B 50 2D 50 49 3F 02
 17 B6 53 30 8B 4B 31 EA 3F C2 DB ED 88 A4 69 92
 0E F9 3A 2E B6 6F 10 EE D6 82 4E CF 8D 3A F5 8D
 2B B8 63 D8 B4 DE 56 DC 65 7A C4 E9 90 05 F6 8B
 7C 36 3E E8 CB B1 BC F9 23 EE 55 35 70 2A B6 41
 1A 5D 03 27 CA 53 A8 21 C7 6A E8 D8 D1 28 28 DF
 76 0A 5B F7 24 E4 AF 51 7F 1E DE 81 EB BA 4C FF
 C8 D4 E9 4A D7 8A AF A3 AC 88 57 A4 14 18 E9 DF
 20 63 63 62 C9 6A A6 0E E3 0F 62 1D 02 FC 8D 21
 6B BF 4D 9C 60 08 08 8A B2 63 83 1D 8D 53 72 14
 EE F4 DF 37 57 9B EF 32 3A 34 2A 05 15 7E 68 D4
 9A D2 C5 F4 B6 71 3F D2 0B 39 19 ED 42 27 9E FB
 08 0F C7 33 B0 AA CB 60 4C CE 26 39 AC C8 4C FE
 6B 37 E2 38 D1 CF BD CD 57 04 AA CF 5B 2C AE BD
 22 5F E7 D8 3D 49 D9 1C 2C 44 78 96 8C 86 BF 4F
 0B 31 D4 21 EA 26 77 98 05 C7 71 E8 B2 ED 7C F0
 82 D4 DA 27 7A C6 D5 0A 4C B9 50 65 4F 53 9C 4C
 14 97 22 56 50 A4 43 C1 D1 91 D9 F6 ED A7 6B 06
 1C 09 DF 17 DD A1 66 5A 8E EC 55 A8 76 F9 4D 56
 7C B5 95 80 60 6A F2 86 29 68 55 64 E2 CF D5 B5
 7E 34 CF AC 07 09 14 A2 3C 10 97 A9 0E 83 09 A4
 0D CC FC EA 91 7D 63 AD EE 6B 34 3C DD 07 56 80
 5A CF 9E 8D 47 34 5F 06 06 6D 45 91 74 9D C6 25
 BE C7 4D BD AC B5 10 4A 24 48 40 5A 69 9A 5B 29
 FF 88 AB AF 87 E5 0D A7 49 5B EE 32 5D 73 11 18
 60 4E 45 D6 B9 B8 2A 39 EB 2A 0E E7 EC 78 F3 DB
 5B 93 EE 21 FA 16 1A 51 51 05 6C 72 72 0A A1 CB
 34 81 90 A1 DA 5D 6E BE F3 BA E8 E8 E2 82 9A CB
 EE 6F 9F 9A 0A BD 7B A2 4C C1 B4 B6 BE D5 71 39
 7B 5C A5 46 E4 87 27 8C B2 7D E2 80 EF 5D B5 A2
 19 A3 27 25 A9 79 71 8A A2 D2 89 8D DB B4 45 04
 74 F9 C2 19 16 6A 23 B8 E5 72 2F 29 D5 03 C9 73
 7B D6 CC F3 BA 2E 82 6B 3E E0 AB BC E5 5C CD 5E
 CB 1A 7F 67 C0 F8 D7 3E 97 11 E9 18 A2 16 80 41
 38 8B 75 56 13 6C 3D 36 0E FA D6 88 C3 76 14 C8
 77 E6 AF A8 4C 3F A6 11 1F 85 FB 82 34 C6 B6 E8
 AA 8C 31 B7 4B D1 0F 16 BF 69 BE 66 4F 90 89 BF
 07 CA DC 75 A1 C2 CC B4 F9 ED DA 66 1F 1F 80 36
 85 05 F8 7C 7C 5F 19 89 E2 6C 27 DE 76 81 8E DF
 E7 EB 3F 11 5A 44 47 53 40 7D B6 1B C7 56 17 08
 4C 91 CD B7 DD AB 79 95 54 47 BF 27 A2 C2 DB BF
 7F 23 4E 69 89 36 B1 43 02 15 FA B1 48 A5 E7 16
 84 8F 64 6F 91 FC C0 A9 89 E1 37 17 86 B5 EB C6
 2D D3 98 4A A8 9F 96 8B F3 8E 5E 38 4F AA 5C 6A
 B4 DD 45 29 CF FD 78 25 91 A7 82 58 36 E9 A9 84
 F1 54 86 30 AF 04 A9 D3 70 5C C9 E7 63 7B B9 F7
 0F F9 45 8A 4B 95 EA 10 B4 DB CD 08 98 60 60 C4
 24 32 39 39 E3 3A D6 6F 88 C4 99 57 EB 66 FA 1B
 C8 BD D2 A3 B2 9B 75 44 65 61 96 2E B3 EF F5 AB
 F7 27 AD 85 53 DD 80 A4 E6 CC BA 8E 48 42 B9 00
 A8 5B 52 B1 07 79 86 7E AE 57 AD 3E D2 A1 9F 62
 B1 7F 9A 6A F3 FF 05 EA 3B 36 FE E6 AE AC 40 00
 49 73 FC 61 42 9A 22 C5 6F 1D 6A 21 F6 F7 74 4B
 AB 71 DE B7 33 07 02 4A F4 AA 27 7B 0E 4D 09 4A
 47 C6 7E 2D 01 7B 9E ED DC DA 84 8A 40 34 42 4C
 BB 2A 71 60 C4 19 F8 57 4F A6 B1 DD F7 3B 1A 5A
 7A 8A 4F D3 31 87 5A A4 6F C8 3E F0 2A BD 4D F6
 97 14 04 36 FE EE 9C DD 79 05 3C C0 82 C2 29 79
 69 3F 1B 9B 33 E5 0A 5C 81 B1 D7 E9 94 DF 07 14
 30 4B 70 07 DF 36 E3 31 1C 2B 02 13 7B EC BF 9A
 56 38 08 33 B2 F9 8E B7 32 63 69 CA A9 BB 58 86
 F7 54 E1 76 A8 60 22 DF DA 80 54 B0 AC 1A 87 CC
 47 4F C8 17 F1 EA 95 53 70 9B 62 CA 3C 2E 0B C4
 ED B6 60 DE 11 27 02 A3 6B 21 12 E8 70 A6 79 55
 C4 9D C1 68 76 21 97 F9 99 3E 0A FC 13 33 40 64
 0C D4 08 84 50 4F 0C 2F 4F E3 60 84 EB 1B 14 D5
 AD 5B 48 EA 41 F8 14 3F 7C FA 9B 7F DF 0D 96 1F
 AD F8 34 66 44 B2 18 9B A5 A0 E0 29 70 6C B3 64
 E4 06 63 AC 81 18 34 5D AD 53 15 06 5C 46 1C 2F
 04 38 17 78 C5 3A 92 23 DE F8 6B 89 E5 EC AA 08
 A7 C9 99 C7 68 A4 00 01 D9 6F DA 06 40 0F B3 92
 5F 3E FE E8 92 49 67 27 5D A0 7B EF FE 14 72 DB
 12 2E 27 CF 54 C9 A6 09 B7 38 07 EF 58 FC 98 47
 99 B1 AF D2 7F F7 BC DA F4 3E 89 F2 E1 D2 C2 6F
 09 10 D0 27 E3 DF 7E 66 63 C9 15 06 C2 EB 11 7B
 D1 E0 7F E0 99 C9 62 3C 8A F0 29 F9 2C FB 5C 58
 37 CF 20 42 CD 84 1A CC BE 0A D5 F9 E2 8C 9B 61
 64 9E 6B 0B 6C F0 6D 7D C3 7C A2 31 50 BD 4F C2
 A0 8E 01 84 D5 A1 0C C4 77 26 31 97 97 20 19 88
 03 EE B4 C0 C1 C7 45 80 9B 8A 1E 09 DD 6C DF D9
 C5 FB D0 30 F4 00 2A 6E 19 9D E0 9F 1F E7 5D 7D
 29 BC 37 2A AA A0 87 95 B5 77 72 16 78 29 EA 20
 94 DB 2C 2F AF 07 42 D4 B8 23 75 31 DC AB F7 C6
 4D 2D E3 2F A4 E0 89 D3 82 70 AE A8 FE 43 8D C4
 62 92 21 1B 22 EC A2 FF 84 C1 57 BD 6E 9D 46 FF
 C1 69 37 6E B2 DB A2 E5 DF 01 0B CE 81 60 46 13
 00 C6 E6 CB 56 81 8F 3A 72 E2 26 34 C6 31 5A 0B
 56 C4 20 52 59 8F 6E D4 3E AE 75 E2 FC 6D 35 0D
 54 03 01 84 2F 35 49 87 B8 EE 64 DF 87 9D 99 63
 24 76 12 AB 1E B0 9C 26 EF 86 70 D4 96 AC 58 17
 D8 E7 41 61 99 49 A8 86 4D 4E 99 A1 82 F4 FF EE
 60 F9 26 6C 43 EB 76 77 CE 05 8C A5 29 D0 C1 A2
 AA F8 41 1F E0 19 D7 A4 44 C3 D3 2F 03 EE 1C 85
 55 2C 77 BD 07 A2 34 6F 09 3C 83 29 33 67 B7 14
 34 61 BE 9C E2 0D D9 DE DB 1C 90 9E 6D F7 E4 97
 1B 49 CE EA 13 E6 D0 B2 54 88 91 45 91 B5 58 4D
 61 F5 02 31 54 91 52 65 44 6D C8 22 A0 EA 6E 64
 58 FB 48 7B AB 1A 43 F5 39 1F 75 6D 71 52 90 F8
 77 4A 78 8B 12 A6 63 E1 A7 82 DA AE D4 6E F2 CC
 6C 27 86 90 77 55 15 36 C7 7C A7 22 C8 26 C7 F8
 5D C5 CA 16 79 2E 24 8E 0E 66 64 2C 3B 3F EE 01
 AD 21 38 2A DE E3 1F FF 61 1F AC 14 85 E9 58 1E
 28 A1 69 C9 3C 78 79 1E DC 5B 68 8F 07 86 22 64
 B8 4C BD 6A FD 42 AE 1A E1 6C 59 60 29 32 36 B2
 16 E7 DF A4 50 6E 23 B6 CB DE 74 67 93 9C 1B B0
 6B 49 02 98 70 FA 0D 36 C7 E7 B4 E6 A9 3B 31 77
 D2 62 EE 9B 1A E0 A3 5C A5 EE 7F EA 75 93 07 5A
 8B 3D FA AC 6E 6A 77 A2 2A 59 14 E1 33 BC 1E 8E
 9A 04 8B A5 37 A7 C8 60 29 1E A0 29 D5 42 BE 85
 B9 3B 1A 3E E7 41 DB C5 C3 C3 EA 2C 77 8C 3A FC
 0C C8 B2 63 41 2A 99 BF DB 8F 88 BE 9B 0A C1 32
 A7 28 C1 80 79 6C 0C 13 1C CD 6B F4 3E 21 AA B2
 3A 58 D5 C9 F9 A8 20 E4 1A 8F 37 CC A5 0C B8 8E
 F4 D6 E2 BD 37 54 6D 1C B8 01 5A 22 46 49 05 6C
 DF 2F 4D 2F 13 2C 17 B5 9A 06 E4 46 C5 93 CC 1D
 AF 57 E3 A4 CD 15 2F D1 7A 13 6E 99 73 2B 43 9E
 C3 CA 1F 1E FF 63 FA F9 AC 1E 30 CD AE EE B6 EE
 19 34 9F 11 C7 8D E9 6B 53 81 74 0B 6A E0 39 2A
 16 8A 2A B3 AF 5F 4D 5F D7 DB 30 FA A6 D2 96 41
 2E DC 60 AF 98 94 BF 94 F7 73 58 C3 0C 05 89 37
 64 3D 9B 75 DC 58 0E 55 C6 2F DA 19 36 CE 91 B2
 ED 42 CE 0A AE 18 22 22 B2 44 00 99 34 EF 1A DF
 E2 15 8C 52 36 E9 19 C9 78 E8 7A 7E 0E F8 89 0A
 FC 97 2C AE 8D 83 52 B0 33 55 46 22 10 40 52 A5
 75 68 78 C5 EF 06 FB 92 33 39 8E 5A 9D A4 CA B6
 0B 96 3C F6 81 04 0E A6 AA 83 89 FA 8F D5 0E 56
 A2 FA 65 A3 D0 6F 4D F9 D9 60 D9 BF FB 71 FE 41
 1D 67 D5 87 A7 B6 FD 5A 99 43 38 92 E6 64 04 C0
 F0 7F A9 F6 AC 52 38 8E 9D A7 74 63 3C 8C 49 6C
 2D 8B 4F 9A 17 13 01 54 AB 0B 94 3A 91 A0 C3 EC
 D0 6F 3D 17 1F AB 1F 31 12 60 02 24 62 D3 0E 9A
 C9 94 70 FB E5 D4 80 C6 0C 06 F5 4C 1B 96 90 48
 6A 93 55 6B C0 FF 07 FB B1 DE B6 6F 79 05 6D 6E
 BC 1D 4C 8A 27 43 F4 5A 10 8C E0 4D 06 B2 EF 00
 65 F0 F5 FE 03 93 AE F0 0D E9 68 9F 45 F4 4A B1
 88 F9 43 3D EF 46 2E 9C 99 C8 C8 36 ED FB 39 9B
 92 D5 15 CB 0A 52 F7 FE A7 34 F2 A2 DF 70 37 49
 1F 42 D4 66 C6 65 8C C6 6F 9E 4E B8 0A 86 B4 9E
 80 9C 2B 93 48 51 D8 D9 64 AA 09 64 9D A5 10 37
 16 56 3C AE 32 A8 A8 F5 68 39 04 36 7A 25 D9 C9
 F9 5B 78 F4 4C A3 2A 76 16 7C ED EF CD 1C A9 51
 00 3D B1 73 66 56 9D 76 D9 D1 DC 77 AB FA CB C7
 FA CB 78 C6 CF D6 87 40 04 B3 49 F1 74 E3 3B 5D
 D6 D5 21 8F E3 8B 42 D7 B1 4E 4B 28 58 09 98 D0
 D1 4E C9 E2 75 1A 61 77 08 CA A2 CE D1 16 CF 09
 2B 8C FC 28 52 A1 82 5B 3B A4 3F 21 D7 B1 61 AA
 F6 7D 2F 66 44 1B C0 06 7A 7D 8C B9 38 53 F7 2F
 EF E2 B8 51 BB D9 80 AD A8 93 DC 5E 38 06 B2 8C
 01 46 6E 1F D6 E0 70 B1 59 79 71 9D DA D2 6B 24
 F8 A9 14 31 1B 2A 5C 55 DE C3 CF B1 76 A5 67 8E
 02 0E 07 10 7A 8C 93 BA 23 AC 53 C5 FA 8A 7A 2C
 82 18 C8 6E 8C AC CD 46 C6 48 80 36 B9 FD D0 2D
 2B 53 AA 08 4E 7D C1 2C EA 70 26 8B AD D2 1B 6E
 A3 10 81 CF B0 49 6A F5 46 8F 23 93 10 E2 C1 73
 C5 BB 89 CC 1F 13 AF 6C E8 76 9A B3 CF AF 6A 85
 4E 35 9A 96 1A 68 EB 9F 82 B9 0B 8C 78 9C 5C BB
 55 0A 6F 87 1B B7 F1 8C 17 0D F3 1D 9C 80 B9 04
 32 BD C8 88 D2 57 B7 E5 0B 1B 1F 86 77 94 06 92
 9A 96 98 E6 E1 A3 03 08 7E A0 34 CB 01 D6 E5 5F
 9B 00 97 1A 42 B4 DA 30 43 93 99 BC 9F 96 51 AB
 06 E4 65 C6 EA 70 FE DC 1B F2 A1 8C 84 FB 29 E1
 FA E6 99 8E 0B 73 83 82 FE 8C 7F B1 95 79 3C AD
 7E E4 6F 39 79 37 78 D0 12 32 74 78 50 1F 12 A6
 20 DE 4E F0 CD 2C 84 F9 49 5F B1 AB B0 DD 19 C9
 E3 9C 34 CE EB 68 6F E9 90 72 E3 E3 12 99 B0 07
 44 4D FD 95 32 FE 9D D4 DC E8 F7 7B CC BB 0C D5
 1B 6A E3 45 63 AA 49 BB B1 77 9D D7 45 DD E7 3E
 B8 4C 6F 6F 72 DD AE 6C BE F4 E1 32 4F 2F 6A 7E
 FE 8D 80 04 DF C7 B6 83 04 20 BC FE ED 1B 18 4D
 0D 08 22 C6 E1 5B 1B 96 36 E8 68 71 04 55 A2 56
 C0 21 5A 18 28 31 BE 20 F1 87 6D 39 1B BE E5 B4
 18 7F 65 50 A2 21 B9 65 8D 16 65 A2 50 D9 6D 3C
 07 70 FD E2 2F 44 25 10 E4 03 1E 5D E1 60 96 5B
 A1 E2 CD C9 EE DB E4 E7 09 2B 99 49 E1 A3 F7 A9
 E0 DA AE 24 8F F0 72 BF B1 70 D0 13 CF C3 2C 45
 8A 01 2F 90 CE D9 DE 08 99 CD FF 1B CA 84 95 FC
 36 F6 B3 AC A3 2C A7 C6 93 12 1C E9 E0 ED CF FF
 1E 47 39 85 50 0B CD 2E D1 64 00 05 AB 2A 28 60
 6A 96 6F 2D 8E E9 F6 B2 48 F2 12 B0 99 F7 92 F3
 F7 A4 A9 0C 3B B8 0B 8A 1F 8F 23 DB 0C 4C 6E BA
 DA 11 CF 00 CC CD 2B 3B A6 23 D9 EF 51 7B C2 07
 94 84 4D B7 4B 60 63 54 FC F3 E8 9F DD 68 FF 9F
 4A 49 89 54 43 03 60 71 02 4E 02 86 B0 67 F2 44
 D5 1C B4 99 52 D8 B9 20 20 61 9F 44 BA 41 8E C2
 4B 8C 53 37 6D D7 28 5C 87 B6 0E 50 CC C8 0A 76
 D8 3A 86 61 2A 51 0D 0D 22 02 0F 8B D6 F8 DC 7A
 9D 5F F5 7C 20 FF 69 56 81 E3 0D 6A AC A8 71 9A
 B1 4D 98 F2 3F 52 7F E9 9C 77 25 04 E5 96 58 9D
 6B A0 34 AE 7C 06 B5 86 74 84 0C 0B AC 18 AA 33
 35 29 CE C3 E8 88 82 85 4D 94 7E 79 86 41 28 87
 49 6B E7 60 C4 26 F1 76 17 71 48 86 D5 43 A8 F5
 5C A1 77 FB 0A CD A2 6C EF 2C E0 FE BC A3 70 41
 93 36 1A 1A 41 3B 22 AB 4E B6 D1 DB 80 4F 93 EA
 AC F5 EC 4E 0E 1B D2 1F E7 6C 06 4C 8B F0 94 37
 0F 43 91 A2 02 D5 4A 64 D4 59 95 9D E8 92 CC 1C
 23 3C 9D 58 BB 1E 55 7E 35 A1 81 BB E1 89 1F AC
 69 EB 51 78 8C A8 D3 6F 3D DB C8 E9 32 19 0C 62
 FE 1F 9A 4B 2A 00 62 93 99 A5 5A 96 83 8C 09 B0
 94 2D E2 D8 1E 43 39 82 7A 0D BC 0E 68 14 7F B3
 0A 4B 36 08 78 9E FC EE BD 25 B5 66 3A 61 03 B6
 50 09 E2 B9 E8 32 58 3E 4E 51 32 C2 1F AC 00 E1
 7F B3 0B 86 14 76 BA F3 3F 00 18 39 7D 1D E8 13
 52 BB B7 FB A5 95 F8 E2 EC BB EA 5C 8C 47 CF 49
 2E 0E 8B 95 E6 D8 7F 98 93 7A 90 45 80 56 09 0D
 1F 81 E4 72 69 E8 52 EE 7D 1D 3D E8 9B E0 81 DF
 00 86 E7 0F 98 11 B2 03 72 4F 41 DE 50 A8 0D 76
 37 EC 8F E0 5B 77 A5 71 DB 0F A5 9A A8 BC 9A 52
 4D 8E 9C 41 2B 9F 75 74 F3 D2 D9 50 83 B1 9A 51
 4A 31 CC 33 8B 14 ED B3 2D 44 9C CB 1C 81 88 FB
 41 BF 1B 26 7B 48 99 1B 1C 41 30 CA FF 7C 80 DD
 EC 48 D1 4E 4C 1D 2C 7E C5 8F 0B F0 29 80 DE FF
 C0 C6 5E 4B A7 28 B0 91 70 0F 15 77 DC 08 B6 89
 8D D7 6B F2 85 6F 98 26 F9 7D B7 C5 A0 60 AD 39
 58 E6 1D 2D 7E CB DD 00 C3 3F C0 2B AF 4F E1 27
 BA 2C 3B 4D 9D AA 7B 97 F9 50 28 BA 27 87 5F ED
 52 F1 94 5A 59 00 21 2E 4A FB C0 39 57 80 F6 66
 D4 3E A0 0E 2C 07 57 D1 75 28 70 C1 E3 2E B0 B9
 E5 E6 DA 9C F5 32 0A F4 D8 76 3F EF B1 53 2A 18
 61 D6 30 EB 2B 01 DF 43 5C BC 24 5A E5 7C 08 A4
 2D 09 1A A5 1A 28 0E C9 6B 7B 42 13 10 05 93 7E
 CF 55 FB 92 2C 82 00 15 1D A2 DE 8B 6B EE 9E 63
 0B 60 F8 AF 87 E4 BC C4 60 4E 1F 60 A3 57 4A 66
 EE FC DD FC 12 5F 59 49 99 2F 03 9C 1D 8D 60 28
 07 BD D1 15 B2 51 C4 A0 6A A8 0A 51 62 D2 F2 62
 F0 5A 98 7F 0B 43 50 E0 D1 A2 92 12 FD AD 92 8A
 10 D4 61 78 84 95 77 D4 16 3D A7 91 D4 E2 F1 C0
 0E FF A1 66 48 10 DA F1 DB 16 B0 8E 99 15 E5 6C
 84 6E 8B 1E 0F FE CE F4 13 27 6A C0 91 52 25 AA
 47 3D 91 D8 0B FA BB D5 57 7F 10 F5 4D 0F 21 3E
 2E 6E 22 A0 09 EE CB CC B2 8C BB 46 B1 AD D7 54
 8B DF 59 89 41 26 1B BC B9 CE 23 04 A7 2A 8E 3F
 B6 01 1D 6E 1F E9 6D 06 75 B3 B0 ED 53 03 AA 85
 00 60 1B F3 06 87 A1 E0 2F E6 15 AD B6 FC 01 62
 39 65 D9 6C 75 7E 93 5D B5 8E 28 BE 12 1C 21 86
 BA 26 90 74 1C 1A 29 20 A4 B8 D2 9C F9 F0 DB CB
 F7 A6 FB 88 64 E1 CF 01 A8 D2 E0 49 26 10 C9 B4
 76 9A 77 98 7C EC F0 F9 15 B0 C6 33 BB 67 CF 3C
 48 16 98 04 A0 77 A0 08 87 CC 65 FE 0D BD 47 52
 2F B5 DE 62 30 1D 16 C9 90 F1 F0 25 F5 10 9F 5B
 EE B4 D3 EB E6 C6 41 D0 32 03 9A FE B9 37 91 2B
 AC 73 3F 64 97 B1 FE EE 1C FE AE 9F 61 A4 C0 09
 B1 8F B4 5B 65 CB CD 20 A9 F0 04 F3 F1 DB 8D FA
 C3 EB F0 A5 8D 5C 6C 3B 9A EC 4F 32 17 92 E2 CB
 E2 F6 63 6C 02 BD 72 FB 51 FA B7 DC 86 4C 0B A7
 D6 FF 51 CE A6 8F C8 3A AE 24 E5 6A 2D 9D CB A1
 3D 17 6C 54 0A 05 0D 8D B8 6E BC 06 CA 60 43 5B
 D1 77 5F 11 14 B6 6E 07 83 1B A7 9B 16 2C 4E D3
 D0 7C 3D F1 AB 09 3E 9D 8A 3D C2 BD 22 76 EA FC
 7F FF 60 5F F3 D0 7A F8 5A E4 AF A0 25 BE 83 20
 C1 BC 34 62 E2 BC A1 2D 33 3D BB B3 C7 05 0F 76
 6A 9F CA 66 92 FA D6 DB 56 D3 A7 5D 66 9C B2 A3
 B7 26 58 E3 5A 27 2B 45 F6 90 84 F5 B3 74 CB 60
 1E B7 70 DC FD D3 D5 8A 8C EB 7B 33 78 FE 5E E8
 6A CA C8 A7 0D 31 6D 38 DF AD 93 16 B6 6D 5D D6
 33 0A A2 CB DB D2 30 A9 76 39 8E A4 95 34 47 62
 A5 F1 7A 7E 1B D3 F4 8C E4 1A CA 92 1D E5 2A 93
 6A DC D4 71 9B CB FB 06 4C D1 69 F2 5F 49 A9 55
 E2 B2 33 79 F5 82 AF 42 74 AB 24 7F A3 B1 2D 42
 B2 23 CC 76 E6 1D 97 C6 D3 6F 21 52 A8 B8 50 8A
 40 A2 26 27 54 9C 47 34 12 33 4F 4C BD 2E F4 80
 41 9B DF 79 7A 1C 65 BC 93 20 E3 A0 EF DB 29 D1
 D3 9F DA D0 D8 B5 C2 05 D6 51 52 19 58 EE 13 09
 43 EA FF DA A3 53 24 84 89 C9 D1 9C 3F D0 A4 E0
 49 DB 25 B9 16 05 8F FD 3C 8C 12 F8 15 22 FA BD
 15 43 11 10 DD B0 71 71 A4 75 D0 AA 68 BB 3B A0
 D3 41 D3 E6 61 B5 78 B3 5A 36 E0 50 D3 2E 97 72
 66 84 7D B8 5F 6E BD A5 2C 2C 53 00 95 9B 48 9C
 66 66 59 D0 8D 60 08 AB DF 42 17 4B 0C 9D 62 9A
 9A 44 85 7B 85 C9 EC 9F 1A 86 B8 5E 0D 45 5E 22
 C5 0E 2F 38 29 1F 8E 16 02 A4 EF 41 9A 65 E6 7B
 C6 95 87 9D 79 85 61 7B 4D C0 54 32 AB 12 67 91
 31 B2 B4 D4 64 5D 6C 38 DA 57 3C 35 C8 94 F3 40
 2E 47 06 55 42 BF 91 9C EB 30 3F 6A 47 E5 7B 12
 5B E2 BC 72 90 37 A7 6E 30 50 B5 25 56 19 E0 4F
 67 85 EA E3 A7 01 95 45 59 BB DE C3 D5 33 3B 9A
 D5 34 04 45 DC B3 6F 3A C1 A0 92 97 E5 30 E8 93
 A8 0C 6B B1 2E D0 6D C3 D7 EE 91 DC 23 81 50 2D
 B6 46 D3 C3 AC 0B 42 97 07 11 C7 65 55 27 22 FD
 E6 E0 03 46 7A 84 05 2C 37 BB 1C F2 2F 4D CE A2
 10 6D 3D BB 07 80 A5 84 82 32 DC 01 F7 60 68 E9
 00 8A 25 12 55 77 CE 51 98 AE 85 B9 D2 83 B9 28
 4B 90 86 2C 96 55 77 AE 32 C7 83 4F 5F 06 16 26
 3F CB 34 13 82 72 E8 99 BE D0 BA 57 70 18 03 B5
 D8 A5 C7 D1 48 CF E4 95 94 44 7D C0 7D 53 ED 7F
 88 75 DD BC 2B EE 6A 98 8A 22 8B 54 85 20 7D 39
 CC B1 10 53 9C 16 38 FB 6F D1 C9 91 D8 54 2E 47
 A3 23 77 F1 1A 73 C8 BA FF 9A 27 31 2B C2 9E 8E
 1C 10 A6 75 4D CA 94 E3 A5 26 AF A2 06 DD 03 0F
 47 7E 09 BD C6 5F C7 2B 1B 35 63 3D E3 ED 76 54
 FA 8F 59 9F 75 A8 D5 9E 3F 88 34 B1 E9 C8 DE 66
 BB 95 97 1C 2D 59 D3 EB A3 C0 B7 F2 A8 B2 35 05
 47 89 36 69 76 00 0A 5A BF 8F 62 99 36 FA 52 57
 FE 4F 1E 7B EC B3 19 ED A7 B4 F7 1F B5 CE AB 05
 78 CD 44 0E A8 B1 20 19 3F 67 3A 62 C5 62 B1 9D
 7F 3C 33 34 5B 6B A7 DD BB CD 84 8A DD 86 DC E5
 C4 E9 30 98 12 BC E3 A2 3B A0 97 B2 39 85 97 F3
 2C C3 4F B7 69 53 38 F0 F7 93 3F 31 D0 51 02 16
 52 C5 1E 22 0A 39 FF 5E 21 29 34 92 EE A6 E6 4B
 3A 08 71 CA 34 19 CF 68 7E 57 BB B9 1F 78 09 98
 EE 9B 5D 0E 03 7D D3 D4 AC DF 98 37 E8 95 30 47
 38 7B 27 A1 C2 98 BE 89 DF 1F A5 B6 6D D9 E6 61
 10 FE AD 08 0F 4B C8 12 FB 29 C7 31 E2 B1 88 E6
 90 58 54 D4 31 69 B8 28 5E 63 B0 2C 80 5B 05 E9
 EA 97 8E BB C3 30 2A 30 E0 90 0E F3 84 78 17 6F
 05 4C C7 FD DF F8 A8 91 65 C1 87 FA 10 8F 8F D5
 F4 AE 0D 81 88 BF 95 76 F3 03 81 EC 70 90 8F D5
* End 3631221487 3252588538