* LTspice Encrypted File
* 
* This encrypted file has been supplied by a 3rd
* party vendor that does not wish to publicize
* the technology used to implement this library.
* 
* Permission is granted to use this file for
* simulations but not to reverse engineer its
* contents.
* 
* Begin:
 2A 85 D2 D8 8E 19 D8 D5 D5 53 B9 14 C3 7D 7E 83
 01 1A 15 B4 90 8E 61 44 36 45 BA AD 8C 23 93 A7
 76 F3 63 B5 6F B1 64 09 F5 9F EA 45 70 89 90 17
 46 F2 7E 09 15 0F 5C 60 84 A8 7E B4 94 3A 92 C2
 B3 EA 21 55 59 E0 6E 93 6B 39 CF 71 9A DE 0A 8B
 B0 83 E0 67 A7 1B BB E2 9E B4 98 7C C3 08 B5 16
 A6 48 53 11 69 48 6B 87 12 0C AD F4 3A 33 80 F4
 BE 3D 33 D8 39 74 28 6F 4D 8A FA 2E 19 E2 01 96
 59 ED 68 7A A7 16 38 41 A3 F2 EB 19 64 25 74 BD
 EF B1 15 9C 0B 46 60 61 74 C4 2E F9 A8 F2 BD D8
 E5 DD EC 4C A2 07 B9 DB 1D DC 98 6D B6 74 3E 47
 8B 06 56 2C 67 0C 72 F9 81 EC E3 C6 B8 0C A9 CC
 19 2C 8B 7B 13 A7 A4 A2 5B 9F 63 2B 79 0D 53 1C
 4D 56 A3 CE 38 CD 72 00 9C D3 C4 1B BF D5 32 E8
 A5 54 10 A2 E4 3E 98 54 97 FE D6 8C D5 9B D0 E0
 10 0A 6E 5A B4 25 3A 1E F4 BE 62 1B 57 68 40 1C
 17 8E BB 62 F8 88 51 CE 9E 22 84 BC 33 22 0A AF
 2B 1B 59 2D CB 04 EA 98 5C C3 4B B6 D7 99 1C 6F
 79 62 73 7D 20 7B 7A 2A DF 3F 6C 16 B2 18 0B EF
 B8 D3 92 82 DF 72 B5 6B 63 9F E9 31 54 DA 81 E6
 7B 55 0F AD 05 7C 5F B5 55 55 D8 8A 91 A6 24 6B
 E0 77 8A 14 F2 46 3F 98 A5 2D 92 64 61 15 13 2B
 DC 3F 0D DC A3 CA 1A E2 2B F0 BB 8B 07 ED D2 DA
 40 8F 0C 0D 13 AB 0B F3 E9 51 4F 7E AA 5A 4B D7
 B3 34 29 4A 1C F1 10 1F 75 62 7A CD E6 C8 E4 B7
 3C A1 B3 DF 1A D1 AE F5 80 33 72 08 CD 23 FC 14
 8C 16 8E EB DD B4 F5 EE 43 73 D8 D8 7C F6 32 87
 DB 89 E3 48 93 B8 49 31 F5 3A 3B 1E 39 C5 BD F7
 05 E6 7F 34 00 CE 02 54 EA C3 37 84 DB 5C 59 5B
 E6 71 AB A5 76 9D FB 56 50 F0 DB 47 43 84 31 B4
 1C F3 F3 D5 45 E0 BD 52 D5 EB 2D 75 C9 AF 3B 85
 A1 9C 0C E4 52 9F D8 45 30 57 95 D5 F2 10 AC FD
 48 8F BA A7 43 A9 B6 D1 EE C9 F4 2B DD 08 36 ED
 90 84 CF 06 04 AE 6F 82 FC 57 A9 26 05 F9 82 A8
 6D B2 31 A2 5E 4D 6C 9F 56 51 68 A1 BC 16 2E 65
 CC 50 9B 73 56 7A 3F 63 66 5F E5 48 D1 8F E5 84
 24 A8 CF 19 4F 63 BD F2 B2 4D 50 7B FB B9 86 5C
 E3 0D E6 BE 8B 73 8B AA 3D AA FD 21 7C A6 2C 91
 DB 37 3D 68 B6 79 EE 94 51 0B 05 05 F3 DB 34 57
 D4 DF 09 BC 40 F5 00 29 A2 09 10 28 63 6B D3 72
 CE 50 43 09 47 C1 53 DD F9 53 A3 2C B2 86 E8 E0
 AB 8F 3A 2C 8D BA CF 74 1D AE 94 D4 47 0F 37 29
 EF B9 00 26 CB 16 2A 17 C1 68 4C 1F 4B 54 36 0D
 B2 1B 19 21 13 AE D8 1F 28 E6 25 1F C9 0E F7 B5
 DA 68 16 22 EF 0C F1 EA E3 82 76 6D AB 16 79 26
 96 2F A4 D3 96 03 AF DB 6E 88 2D E5 BF 03 27 A3
 52 EE 0E 80 2B C7 20 44 27 02 9B 9F D4 AD 1F C6
 98 D8 B9 56 57 8D E9 A2 33 1F 7A 5C 55 9D 32 6E
 87 CB A6 D5 64 DF E1 55 53 8E C6 A8 D2 E7 D7 1B
 57 C4 2A 6D 59 0F B7 D9 1B 79 1E B4 B2 AF 37 6A
 22 1B 02 D4 EF AF 0D BE 46 3F 15 C2 FC DD 66 F5
 01 B1 B9 66 A3 BB 8A 12 F0 F9 6A 0F 0A ED D8 83
 D0 A5 06 E5 7F 96 94 19 43 2F 90 91 15 AC 52 85
 C2 3B F3 13 BD F9 A4 16 CD E8 BA 9E 67 E4 E8 AB
 D6 3C 79 65 AD 47 7C 43 39 F5 7E FF 2C D2 A7 6C
 B1 73 2A F1 AF C1 06 AD CD 24 C4 2B AC 71 F6 3B
 C7 BE 57 8B 85 9A 83 1D F6 C5 01 0B 08 45 DE 94
 F8 80 FC B1 AD ED AB 09 6F 0C D0 F0 95 6B 1C AE
 13 5B 6B 9E 3F 9F 04 E5 03 50 7A 92 64 82 CD D6
 13 AD BA 51 DB 55 73 89 1F BB 4D A4 3E B9 36 6A
 6C B1 94 16 81 57 99 A2 E2 B7 68 46 5A F7 2B E7
 C7 85 34 CB 64 AB 12 7A 4B F6 E8 5D 4A E1 E6 59
 AF 8B DB 10 51 83 F8 1C 76 BD 91 3E D0 D8 69 3B
 BA C7 3E C3 15 23 1D 01 A4 38 13 B5 FC B6 DC 22
 EB 77 92 48 E3 96 43 CE EF 51 56 9E 99 0E 9A FE
 35 5F B0 1E D6 B8 C6 73 B0 2C 74 0C 3F 4A 9A 3D
 51 C4 51 5D 20 BB D7 6B C8 8C 46 28 48 70 C2 F3
 8B DC 9C BF EF 9A 70 87 EA F4 1F 91 71 1D 04 4B
 77 C4 B1 59 11 81 07 F7 28 11 33 4E 13 F5 66 27
 A9 5D 70 90 BF 10 1C B0 17 3D 58 88 00 18 0B F3
 11 B0 9E 05 BF 18 5C CE AD 7B 57 55 BD F6 80 DE
 1B 74 F1 D3 A8 48 57 55 14 7C E5 BA 6A 35 6E AC
 31 65 A9 14 BC 62 39 80 C4 B0 FF F6 BD C3 27 CD
 88 FC D7 23 5C EE 1D B0 BF 93 B8 A0 35 7A 13 86
 D9 CB 06 0B A1 8B D3 DA FA F6 3B DA 76 CF 1F 85
 53 FE 61 A1 C8 62 41 CC 36 E7 4A 85 10 AB 6C 1F
 3D 22 06 59 DB DD AE 48 BB 57 4C A0 15 C1 89 50
 AF 5D C6 03 5C 8B 71 79 3E 4A EC 38 51 5A DA C6
 88 20 B2 DE CA B0 13 48 A5 82 63 00 13 62 1E 57
 1B AD BC 3B 13 21 40 32 4A 95 A2 C8 FE C4 70 A7
 AF 70 6D F0 2F 45 22 61 01 32 7A C1 89 DB 3C 54
 6D 39 7C DA 77 2C 5E 46 09 33 B2 E4 8F 74 4B 78
 DA FF B7 80 E6 13 32 C1 1B A8 82 ED 9D 59 C3 49
 B8 94 D7 50 A1 93 E9 A0 4F 94 00 ED B5 3D 2A 44
 C2 87 EA 3F 7D E4 B5 62 3B 1C 29 6C 7F 5C 9D E8
 54 80 77 C7 BB 56 B7 C8 F0 8B F4 00 DE D5 E4 00
 67 02 B7 55 61 E7 1E ED 59 86 CC 10 47 BD BA 6A
 3B A3 48 2C 27 3C 56 61 82 30 62 93 9E 2D 30 9A
 83 00 8A 00 1B F5 17 29 7C CC 6E B3 55 5D E8 96
 E5 F9 18 F3 29 C3 E3 9C 0D 2E AF 46 14 B3 CD 65
 53 52 C1 20 05 E0 41 B4 84 B4 D0 2D 9E FB B0 B9
 2C 26 2B 7C C6 F5 8E 26 F0 69 CF C0 81 13 8C 35
 E4 08 17 69 71 E6 51 F6 27 B3 B0 B3 0C 72 12 13
 4A 17 89 3F 6C 7A EE CA 95 FA DB 22 BB FA 36 56
 35 3C FD 01 E4 91 1B B5 12 C8 9B 24 75 33 0B 89
 1B 50 F9 4F CF 96 54 5C A8 18 1E 2E 93 7B A0 8D
 BF FB 63 AF DB 5C 5E C3 31 E4 80 EC 91 1F 18 88
 EA 59 40 52 C4 F8 17 46 1A 43 87 0F B0 6D 55 63
 F9 2A 99 E1 8F CD D2 01 34 B8 BF 69 0F 81 45 69
 B9 31 68 6E 97 D4 9E A3 76 58 92 A9 60 AF EF E5
 52 25 9C 42 E8 C7 BC 01 BF 00 BE C4 15 3B FC 9F
 0A D1 DA A0 98 91 36 3B 45 8F 44 DE 99 A1 BB 29
 2A BE CE 6C 08 56 48 1D 28 AD 28 1C 3F 7E 34 B8
 21 5D 97 39 EF 5A B5 12 68 DC 89 24 83 3C CA 6A
 9F 7A B4 43 30 2F 2B DF 8A 65 FC D9 A0 8C C9 F2
 4A 54 D8 00 A1 AF 4C FA 29 CF EB CA 92 A4 11 91
 B3 97 63 32 C5 6B 3B 04 80 94 E7 31 FF 83 40 0F
 C5 DE 87 89 5C C5 18 59 AA 65 BD 46 46 28 A5 5D
 45 CF 51 A5 EB B9 81 36 31 5A A1 61 B3 BC B5 0B
 7F CE CF 77 08 D9 DC 39 BA 2C 05 B3 58 D3 5C EF
 EA 3D DF 49 59 1B 55 6D 9C 77 85 5B E3 EC 94 FB
 E8 58 17 EE 4A E5 DD F7 41 11 C2 83 25 46 90 1A
 6E B1 4B C0 DE B3 C8 C2 1D AF 7E 9F B3 B7 8F 76
 56 02 DD 7D 1D 98 EB 01 BA 74 9B 5B 0C 5E 5A 9F
 C8 34 03 D0 83 99 01 7F 88 74 3D B4 D7 61 69 27
 B5 31 2C F2 D4 79 15 CA B9 68 36 7D BC 29 43 CB
 88 7E F6 36 C3 CD BC 7B 54 0B 41 8A 07 F5 F3 43
 27 39 EA D0 C8 9D 97 40 21 BD 2F 39 54 5D 1C 9D
 20 0E 0B 1E CA CC 3D BF 68 E7 74 E7 94 29 DF 64
 77 C8 06 4E D4 6F 7F 81 09 E6 7C 7A F8 FF 6D 68
 41 ED F9 6B F6 3D 0D 66 F0 A7 F1 A7 61 B9 31 D8
 84 36 87 B7 A4 37 61 8A 10 1B C2 02 47 9A 6F 29
 D4 C3 9F A1 2D 82 96 90 8A F7 54 57 DE C7 B4 0C
 87 A2 19 85 DE 8A 2D A4 C5 7C BC 5B B2 47 70 39
 86 8B 60 CA C1 E5 AF AB 39 55 DA 64 DD 8F BF 44
 5D CA D5 66 0F B2 2C 64 E4 A8 F4 83 D7 25 67 48
 30 D4 A3 7F D7 90 CF 1C 3E E9 F8 3F 0B 4A 00 29
 F4 4D 38 D7 A1 FB 0E F1 0A 18 E5 A8 A5 EF 9A 4A
 0B 48 13 CB 15 A6 C9 1A E7 AB 61 45 8F D3 EA 81
 A9 79 FC 8E F8 84 D6 23 49 E6 C9 E0 4D 2F 9E 5B
 FB B0 52 94 4C 53 6E 92 69 F4 2E 1A CB E2 35 2D
 B9 18 14 06 53 31 C1 E6 F5 67 5B 3A 67 D2 1E DD
 EB EC 8F A6 77 92 F5 EA 8B 72 36 56 25 68 50 77
 1F D8 BF 48 E9 F8 6A 3E 48 8B CC C3 15 6F 84 AF
 8E 31 9F CE BC 81 3E 3F 84 C9 DB 50 5C 22 36 54
 E6 B3 5A E3 08 8C 63 E1 05 2C 28 F3 54 DF DE 78
 C6 D2 9C D0 6B 7F 23 38 36 80 96 4C A1 65 42 E5
 8D CC 47 F8 08 A9 3E 1E 2B 3B 01 96 70 8D FA 7B
 C2 E9 4A 25 2D 12 E2 ED 04 02 61 68 56 7F C1 0A
 50 26 DB FF 3D 0D D7 80 9D 26 08 72 28 3C D3 C7
 D4 8D D7 D7 D4 38 E9 CB DD D8 3E 21 8B 03 62 78
 6F 10 46 8C 16 E0 3C 87 44 53 F7 7D EA 69 E3 45
 1C ED 4B 0E 48 D3 2F 66 2B 18 89 9D F4 C6 15 B3
 94 7C 05 B4 75 0D DD 1B 18 2F A9 BF D6 1E 0B 24
 98 40 48 C9 A1 AA A7 2F CC B6 8B 10 15 F2 1D 95
 10 14 12 AB 06 F5 5C A2 55 5A 51 3D 20 92 00 94
 14 6A 82 D9 00 EC A4 D4 B5 FF AF EA D9 7C 88 83
 D4 91 7C 74 C8 71 C7 96 16 F9 D0 70 01 DB C2 94
 13 F9 7E D4 A1 B9 75 89 1F F1 13 12 B7 AE B2 78
 2F C7 25 51 FE D7 CB CE 5E 59 20 56 1C 3E 45 C8
 D7 B4 07 75 7C 52 CC 9E 77 EB B7 B2 70 58 64 E6
 AD 72 7A 86 C0 CF 7B DA 8F 41 DA 3D FB DC AC 4F
 20 50 B1 80 5D 0B 72 C9 D1 9D 07 5E 74 DD 09 2B
 A2 F2 20 23 EE 16 EE 5A 64 6B F4 A4 78 0B 65 62
 39 80 C5 2F CE CF F5 32 5A EA 5E 62 DF 41 B1 1E
 DB C0 CD 71 32 39 34 46 8D D7 CB 85 99 A4 96 8D
 D7 37 7A 1E 13 EC A5 6A 0C 88 B9 14 0F D0 55 55
 D7 68 1F B9 6D 06 13 B9 67 FE C6 55 4B A4 56 34
 88 E1 03 9F B6 8D 19 DC 10 4A 08 72 09 19 3E 1C
 C7 C0 DC 28 E2 D6 23 BD D7 BC 4E 56 E0 AB 96 2F
 EA BE 15 11 D7 6B EB FA CD 58 C0 F6 05 0A 53 30
 FF 15 A0 27 11 83 8E 78 D2 F1 79 37 19 B4 9C 4A
 79 6B DE 66 51 E2 26 33 20 D5 25 B8 BF 48 27 11
 A1 64 67 62 98 C1 17 82 C4 32 E2 CA CA 1A BE 4B
 7B A4 D4 F3 95 98 E1 B8 0F 75 9E E7 56 C2 05 D6
 03 F9 63 B9 E0 27 66 A6 3C EA 7F 04 7E 38 8B BB
 AA F1 EE 47 38 75 49 0B FC 3B 41 C5 67 8E 7B D6
 F1 0A 87 0A 65 31 3A 77 86 5C E2 4A 62 5F BB D1
 70 24 35 64 D4 17 B6 35 13 18 8E 47 C0 36 2F 6D
 8E 56 9A E2 77 01 7C 84 DF 54 EC 53 EA 38 49 8A
 B8 8F F6 EA E8 0F 1E B4 00 FA BA B5 68 48 FD 3E
 B4 EA 1C D2 41 1A B8 63 8A BA AF E7 94 53 1B 32
 BA D3 6B B8 6D 27 DA 6B 25 CD F8 B0 20 29 66 E0
 D8 7C C8 48 C3 1D 6C 45 DC 99 F5 32 36 13 29 D9
 81 B6 DD 95 86 FE EC 10 BF 4D 35 18 A7 B2 8C 6A
 20 3B B0 37 69 9D 86 7F 68 48 87 0B 12 4F 3D 6E
 96 12 24 59 80 27 EE 1C D5 A6 4B B7 5C 22 72 D7
 A6 E1 CB CB 7A 65 4B 01 DE E1 27 BD CE 11 6D 3A
 DB E6 33 B9 BE BA F3 1A 96 7F 0D 99 9F F7 F2 DC
 C4 8C 75 D8 D2 52 E6 98 14 2C 85 CC A3 AC 91 66
 82 8B 5F B7 E3 71 A9 ED 2F CB A6 D6 EB 9A 0D B4
 C3 72 EC 8D FB 2E 8E 83 73 09 B1 0E DB B5 90 C7
 48 7E 12 E6 11 DB AE BC 20 3F 8A F5 EE CA 63 A0
 AB 12 EA 9F 47 4D 01 60 EC 50 04 51 E4 81 B0 FE
 1F 38 A2 C3 58 88 3D 1A 81 48 29 26 A7 0F 61 89
 B4 15 D7 25 FE 80 93 ED 0E 38 EA 92 F1 FC F9 9B
 98 27 52 C7 E1 74 B3 86 4E D3 20 CF EB 63 B7 DE
 78 27 95 FB 5C 7D 7B 99 DC F0 FB EB D2 A0 8D E0
 28 B5 AE 43 11 B1 36 B6 1A 57 DA C3 78 E7 08 9E
 B8 AE A8 E7 55 0F BA 3E 7A 94 D1 06 D8 DB 36 EC
 7B 0A 7C B4 69 90 A1 67 F7 31 FD 0D BA 97 C4 CF
 F3 A8 B7 32 A8 31 10 C6 67 15 3F 09 DA 15 1F 9D
 A8 10 27 60 69 18 0B 9E 47 1F F7 A4 A2 0A 8D 9E
 18 D9 1E 71 03 10 B4 2C A0 B4 E7 95 B2 D3 1D AF
 3C 7D 9F 39 76 41 51 FD F7 F7 73 8A 93 F0 6B B5
 7A DC 37 BB DE 1A 63 C0 BB 5A 4C 52 AF 9B 36 53
 2E 7D 1E B7 54 C5 45 EA 47 F7 53 81 7C A5 A9 11
 21 F0 F2 55 6F 70 05 95 88 65 BF 1A DC 84 48 8C
 BD DA 7D B6 30 07 9F D5 43 F5 56 50 EA A0 A8 C0
 18 0F EA 5F FD 92 15 16 57 33 D5 CE CB DF 02 DF
 2E A3 17 EE F5 98 C8 15 B0 2D 8C FD 8F 9C 94 6B
 C8 31 92 9C D5 4F C5 EE 8E A2 8E C7 8F 53 BA F5
 41 EB D2 8D E5 72 A5 6F 9F D7 F3 68 68 9D 08 21
 28 32 5F 7F 9E E2 E7 E6 E5 C5 C2 8C 09 BA AC E0
 43 E5 86 3E C7 F5 E3 3D E5 41 2D C5 26 ED B3 AF
 14 42 F4 A6 87 A0 EC E8 A0 A6 0C 59 1B 40 70 25
 6B F8 48 D1 89 2F 14 DB 5A C7 2F 3C C2 C2 AC 6F
 8E 45 50 76 5D E4 34 88 7B 24 FE 81 A4 55 DF 95
 48 90 60 EE 43 C9 B7 85 41 CB B7 26 1F 6D A3 72
 BB 13 CE F3 5B 8C DE 16 0C 33 A6 5F B5 03 FC A2
 41 63 27 07 B9 D5 26 E2 12 0A 1E BD 50 6B 41 F1
 F4 BB DA 25 9C 70 12 53 40 F2 6D 05 C1 43 87 E7
 A9 BF E0 EF 99 51 8B 39 DB EF C0 F7 51 FD 5C 77
 57 1B 8A D5 18 79 18 8E 88 25 9A 63 9C 8E 5C A5
 28 B0 C8 12 50 52 E0 97 33 3A D6 AD E5 1D 6B 55
 13 C0 57 E7 8F 78 4C 3F C9 2E B6 43 D7 37 B4 74
 26 11 CB D8 03 C1 A7 0E 29 3A CE EB EB 58 F3 8F
 7E 6F AF FB A2 16 42 71 AE 74 85 B2 FA 78 D0 88
 69 AA 87 04 95 EC A3 EB B8 42 DB ED F8 70 2C C9
 22 FD 45 C9 54 88 4F ED 60 B0 DC B0 EC B5 D6 EE
 25 78 9D 27 8A 57 22 63 2C 04 74 32 52 9B AE 33
 3F 00 57 7B DA 61 B3 29 5A DE EB 74 60 0B 1E 82
 F1 D6 FE 25 AE F0 E4 B5 E9 8A EF A7 CD 3B 2C BD
 94 08 B0 31 3A 41 3F CB 9E D9 8D 85 A6 B7 80 D1
 58 81 C8 80 C6 B7 D3 E0 BF 41 4F F5 43 A7 1B AF
 FA 20 B8 65 B1 9A 0F 41 A1 32 22 57 EC 19 45 D0
 9F 9C 78 8C 8A FD C1 D5 CA 43 12 2A EF 08 95 40
 CB 72 B3 A9 35 E5 1F 41 0C 7E B4 D1 69 AE 23 45
 A5 A1 FB 89 20 F0 E6 46 BC C9 0C C6 B8 BF 5D 33
 3E 35 AF D6 2F 04 CB ED 7D 94 4F 0E 6D 41 1E 23
 B0 84 17 DD 48 0E E5 9E A5 BD 0C EE 3A CA 4C C7
 E6 E2 43 8A BB F7 6C E8 78 5C D3 C9 83 29 7F A3
 02 43 FC 30 31 CB AE 6F 47 BC 3C 3F 17 10 5D E1
 2A B0 CD 12 CD F7 A7 A7 0E BC 69 C3 E5 16 7D 27
 B2 55 55 DF 4C A0 E2 1D 97 84 0C 3D E6 83 FB 38
 DF 68 13 F9 64 5A 80 E5 17 DB 12 60 F0 AC 27 92
 55 E7 84 FE A8 1A 93 15 22 C9 6F F2 3E 36 14 3D
 A4 4C 6E B6 24 32 95 23 BF A2 D7 72 7A 8D BD 3D
 E4 A6 56 BF 76 6C CB A2 8C A3 C3 CF 49 82 52 BC
 3F 3C 34 26 18 97 72 B6 56 C8 47 5B 34 06 79 AA
 68 7D CF BF DB 2C 24 E1 C3 9C 6C C0 A8 7C 70 E9
 05 6F 91 1E 75 59 B0 29 83 AB 62 BA D5 CD 21 2A
 BD 3F FA 69 D4 58 2F FB 6B D7 5D 09 B0 68 3A CB
 F3 2E 4F BA 4B C8 BA 7A 49 6A 63 13 80 9E 07 B4
 62 C1 F7 72 78 13 63 90 B1 13 B2 08 89 E7 1D 61
 AF 2B 27 12 5E 49 65 53 84 11 0F 69 68 BD E4 ED
 F4 EF 3B B4 EE CF EC 20 CB 05 85 F7 5F 42 A9 6E
 20 BE 44 A4 97 A2 F5 D0 B4 33 1C 13 24 64 B8 28
 13 79 CE 32 2C 43 F7 CF 06 A5 90 BD 31 31 80 FD
 67 D4 DE 0A 80 2D CE EF F4 BC E1 EA 4B F0 63 0C
 D5 98 53 20 63 0D 63 5A 7F DB 2E 86 DC D4 FA 00
 CB 45 D3 41 65 0E 6A B7 67 BD 91 86 0D D4 52 33
 A8 B3 63 89 D8 CA 65 31 B8 2F C1 F7 D3 65 59 E6
 32 03 A4 8E 2E 60 89 4E CB 6D 8E 1E 54 2E CA 2D
 16 A2 3B 53 19 0C CC 08 4E 08 F9 66 C7 54 50 CB
 81 87 09 B8 F6 A9 FA 06 5C B4 B9 90 F5 C6 93 89
 E9 C4 0C D5 11 CB DE EB A5 AA 8F 43 D1 8E 87 F5
 0A 85 84 3A AC 5F 01 36 E5 D9 BF BD 1D 3D 30 C6
 A6 29 CE 1A 1E AD 9C D6 E7 26 A8 CB A7 8B 40 50
 EE 4F 1C C7 1D 51 77 D7 71 56 84 1A B8 E5 B9 BE
 6C 0F 65 B8 6E 2A D4 3C 4E A1 ED AA AE 4A CC 8E
 36 9E 03 CF D7 94 94 AA 30 FB 63 00 DB 81 7E 02
 21 8F B2 C0 68 D5 7E 19 F4 D2 58 C3 81 1F 97 DE
 1F 90 41 92 32 3E CA 00 F6 1B 6B 7C 77 6A A6 24
 7F 1A 75 D8 67 21 08 3F 6B 86 81 3D C6 35 94 48
 82 B6 5E D7 43 5C A7 11 5B 61 C2 BB 28 C8 06 18
 1A EC 38 CB 6A 67 9F B3 C8 89 3F D4 87 36 71 5D
 03 FC 13 4F B4 15 BB A7 AF DF B7 FC 3D 0C B6 EE
 7D B4 0B 16 1D 9E 5A CC 7B 65 E2 E5 EE 71 17 C4
 CE A0 05 95 CA E9 45 36 75 E9 6B 77 7A 80 5E A1
 C5 1D CE 4C DF F3 D8 67 29 85 56 BD 39 95 C6 F8
 A6 58 7C EA B9 EE 62 69 B9 73 E6 DA E4 BB 21 4B
 B0 6B 15 52 06 14 D9 29 F0 7E E3 D6 27 0B 56 18
 18 6B A5 A4 B6 59 0E C0 87 4A E5 20 C5 BC 98 94
 27 0C F7 44 87 AF 20 E4 C5 1B D4 BD 5A AD F6 3C
 87 38 EF 33 43 89 C7 11 AC 32 03 25 DE 50 94 CF
 9E B2 D0 BB 5F 38 7E 4B EB 94 C0 4D 00 97 59 A0
 57 A9 3B B2 0B 31 3D 7E 66 9E 68 64 1C 6B 1F 5F
 4D DC 38 2F B1 BA AD 48 66 33 B9 77 73 EB 1F B2
 04 9E 06 64 68 29 FC 01 10 6F DF 9F 74 17 C1 A9
 78 4F 00 1D 8C EB 6D EB 83 3B 38 C9 8C 21 E8 37
 B0 53 B3 EA CF 3B 38 90 35 8E D3 24 49 1C 8D DB
 06 A6 22 B1 9A 5C B7 03 98 C4 20 AA A0 A5 36 94
 E1 C8 38 8A AA 32 50 D4 69 FC 5F EF 3A 8B 93 9F
 B0 9E A9 A1 1B C5 EC AC F4 A2 65 9C DD 29 2C 06
 5E E7 99 55 A4 C8 C5 19 C6 38 FE 9B 35 67 7A 46
 4E F7 C1 46 52 2A 6C 22 B1 76 10 93 2E 26 22 AC
 22 12 AE 12 5D 88 D6 AD 78 7B 80 92 E3 6A 23 F7
 5D 35 63 7C 94 53 5A 22 9E 2E 1C 14 66 2F 56 71
 6A D9 8E 25 50 5F 35 FE 87 DC CB 54 33 F8 B2 79
 14 FC DE CD C2 7D B3 4F 28 D9 D8 2F 63 DA 31 19
 D5 85 FC 26 02 E0 80 C5 65 32 D0 93 16 EB 91 6B
 0F B8 A2 C2 23 53 82 7A DA 3F 92 F7 80 D8 5D 27
 23 5A 09 BC 19 3F 35 94 23 BB 1B 0F 59 F4 06 67
 B1 F3 B9 98 13 AB 0D EC 14 37 36 69 5A 8F 68 A9
 4F A5 45 F8 06 25 2F 5B CF 59 F1 A6 E3 26 FB 66
 4D 44 CD 83 D9 8D A6 A2 26 4B B3 AC BA CF D8 97
 A3 F3 71 DE AE B9 5B B0 BA D6 EA 32 5D 93 5C DD
 9E C3 BD 3B 2D B9 5E 28 CB 70 42 54 47 6A DD 47
 40 94 BB 44 4E D7 87 52 D7 EF ED F3 71 8C 39 76
 96 3C D0 5B 0E AB 79 64 81 7D 70 ED 2F 6F B1 81
 11 08 56 C9 DA E6 22 B7 46 95 80 66 92 A5 C7 D0
 A7 B7 35 A7 64 3B 02 0F 7B A0 DE 29 77 B7 06 F3
 D2 DC F1 53 27 F3 50 D6 3E 5C 86 87 1C 85 88 6B
 83 F2 D0 35 BF A6 75 F9 D4 C7 F5 E8 BA 69 88 F5
 32 38 FB 23 3B 4C D3 05 99 92 EC D7 7F 07 A3 EC
 63 62 23 2C 40 47 A6 A4 74 A1 F2 72 8A 12 0D 51
 66 BD 29 21 5F 65 79 40 91 51 6D 69 6B 2C AA 37
 7D 01 D3 34 CE 2F E4 DB 2D 0B A2 91 0B A2 31 E5
 BB 4A 89 BC 5F 2A 75 6A 03 EC 11 56 30 D2 21 94
 B8 8E CB 0A AB 11 1A 83 22 37 A2 A0 83 72 15 26
 34 02 D9 98 36 F8 49 88 77 F9 9C 41 DB 13 C5 0B
 90 8E B7 E8 3F C9 9A BD 05 D3 86 6D BC 6F 01 A4
 F5 D5 E8 01 AB BB 53 96 75 71 25 FF 77 D4 F7 19
 F6 2F E1 BF DA 88 98 35 63 BE 25 72 D4 B7 DC AF
 D0 0F 15 35 A1 A7 CA DB 84 C5 68 32 FE D6 17 86
 5F 12 7C 33 A9 72 88 DA 24 3A 9B 6E 98 D5 4D D7
 E3 CB C7 CD 07 AE C8 25 89 3D 51 6B 69 A5 A2 7F
 9D F1 9F 5E 4A B7 0D 5A FE FA 51 10 08 AF 62 A5
 3D 20 D3 78 8B 30 0A 2D 73 BE E8 18 34 19 12 82
 36 5C 45 86 82 D5 DC A0 8C E0 CC 69 62 2E 73 B4
 B7 E2 CF F3 C4 71 40 64 37 C0 4F 96 9B 97 A4 38
 1A EA 27 F3 C7 AB 50 75 18 D7 5A D0 00 0D 08 C6
 B7 9C C2 C9 A3 4E B0 3B 10 73 E8 9E F3 DC 92 FA
 C6 A9 A6 F5 0C F7 18 3B 41 57 55 1C E6 0A B3 88
 D2 11 B6 87 8D 34 2D 28 A9 36 76 67 5E AB CF 5B
 2C 44 25 52 92 1C 80 92 41 90 48 18 D4 8A 12 84
 B8 15 11 54 7B 4C 8F FE D3 F5 3D 8A F4 18 96 21
 65 FF 5F 8F 76 A0 D2 F8 CF 09 9A E6 91 AA E8 0C
 A2 76 AD 5B 1E 28 12 D4 AE A1 4A 4D F9 3E 09 56
 39 EA 59 28 47 C8 25 8C 16 C0 13 BD D7 FF AF 91
 CF 69 3D 91 77 CE 89 2C 1E 23 C0 35 F3 42 89 08
 A9 13 38 B2 BF CF BC F9 21 13 79 2D C1 97 3A FC
 D1 AA 1E B0 60 36 E6 C1 24 34 57 26 D6 78 8E 0B
 81 0B B7 B8 31 8B 80 1F 2A CB 96 F7 BD 26 0E 41
 54 F6 B6 56 6D 34 5A 2F D7 6A 91 E1 7F E6 A0 9B
 42 E3 D8 65 06 E4 D5 E1 82 27 3F 4C 2E 08 DE 6B
 42 09 D7 06 14 32 31 81 68 BA 62 60 B1 A3 54 A8
 A0 1C 47 3F D5 5F D6 B9 54 95 E1 68 9D 3D 4A E6
 24 F0 9D 24 36 2A 77 70 8C 80 61 9C 55 39 B8 3C
 72 61 AC 7E 29 2B AD BC 16 EC 9A 5A A5 9A 17 CC
 E1 A8 8F 25 BC 2B AE 38 F5 38 76 DC 88 C0 F5 6D
 CB F5 86 26 A2 72 41 5D 6B 4C 1D FF 4B 81 68 77
 ED A9 CD 65 01 79 C6 03 8E D0 BA EF FF 5B 3E BB
 6E AA 3C B0 68 74 68 A7 2D 42 67 50 77 B3 A7 D5
 A9 13 FB 9E 12 7F 03 49 E6 63 55 82 2A 92 DD 38
 00 61 F9 77 65 0A 37 FB 0B 18 5A 70 6F 5E 7E B2
 9E E4 22 6F 3D FC D3 4C 50 11 BD 6E 2E B8 39 65
 4B F5 B0 C2 2D 56 DE 8E 2A DF A5 12 5E B9 47 C6
 35 DD 85 CD A6 3B F9 0F C8 81 B6 86 C4 DB 76 7E
 07 F8 A6 7D DC EE 3E 1A 52 F8 BE 48 4B 3B AD B4
 2C 5B 5B FA B4 02 D0 43 10 08 81 19 F0 A4 7B 08
 BF 98 1B AA 97 7E 14 D1 55 40 7F D3 45 9C 64 A0
 62 EB F3 BC EC B6 25 85 61 03 E9 48 25 D9 E8 3A
 86 49 C4 0F 74 EA 5C BE E8 B5 E6 40 58 D7 81 0C
 9F B5 75 F8 86 04 04 33 6A BF 6D 03 69 1F AC 8F
 08 A0 97 D7 10 94 DD C0 47 FB E3 7E 16 2F 86 F7
 45 EE F8 5F 66 8F B0 E3 47 7B AA 7D 47 1C 79 93
 86 AB B8 44 1A 61 A9 D7 AC 89 AE 0F 05 06 7F 52
 E1 8C 86 34 25 A8 5F 93 D9 B9 1D F8 C6 01 13 3A
 C5 47 EE AB B4 67 11 C4 5D 8D F2 A9 81 EA A2 E0
 8C 05 76 8C 8D D4 68 DF 0A 9E C4 CF BD 89 9F B7
 E6 5C 83 E7 BD 21 F4 E5 A7 0E AC 4B B6 67 C2 C7
 54 66 72 C7 C6 2A C1 A7 47 9A 70 B0 6C 4E FC 0B
 CD 8E 84 B0 19 F7 F9 4E 49 72 26 EF A8 51 D8 F1
 31 C6 54 C9 41 6A C7 17 80 E8 3D C3 35 6E FF B6
 0F B8 1D 8A 74 98 5C EE 15 D7 9D 89 70 DF 13 DA
 D6 19 F4 97 B0 08 2B 18 E2 50 9A 95 12 3D 28 FD
 EB 00 E0 57 E8 CF DC CA 33 9F 03 60 A5 97 AC BC
 89 1A A0 50 81 47 2C B3 44 12 D8 E6 43 64 5B EA
 5C EE 0B 9B 1C 73 F1 82 AB 5B 2D D4 83 1E A7 19
 54 07 29 72 2A D2 B2 0B 68 3F 39 3C 41 6D 2C 66
 6E 1B 03 0C 6E 05 32 3E D7 B0 D8 1B 3D D9 76 C3
 24 A1 F2 13 66 3D EC 51 13 F8 51 93 C2 D4 28 CE
 6F C3 2B 74 29 8B 25 E0 B1 1A 54 D5 F3 3F 15 9D
 8A F0 C7 B4 51 7B 4E 86 0F 0E 73 3B 2F 4A 6E E3
 37 8F B5 FC 36 EA DE F4 09 D4 10 F7 D1 EA A8 15
 BB EE 79 19 EC A6 72 CA 43 B1 4A 5C 8A 6D 0B BD
 B9 6A 05 BB 4B A4 40 B3 10 AC 5F 9E EF 86 B3 75
 5B 26 7A F7 1F EB C8 0D E9 7A 85 BD CF 7F B2 92
 CA F4 DE 77 1C 5D 6C 37 16 30 A3 63 DC A0 8E 30
 80 5A 7E C0 F8 6C 08 37 DB 3D 90 C1 43 29 40 30
 B9 93 44 84 30 45 2D 6A CF DF 12 81 7D 36 80 D6
 B2 28 FE 52 93 87 D5 8D
* End 209018249 1503497567