* LTspice Encrypted File
* 
* This encrypted file has been supplied by a 3rd
* party vendor that does not wish to publicize
* the technology used to implement this library.
* 
* Permission is granted to use this file for
* simulations but not to reverse engineer its
* contents.
* 
* Begin:
 EA EC 93 03 C7 A5 62 06 2D 60 27 C4 6F AA 9A F0
 A7 D2 18 B8 A7 83 0D 37 3B AA CE 3A B9 76 A7 B9
 4F 70 94 9F 5C BB DB 56 0D CC 84 75 B4 F7 A2 10
 C3 AA 26 04 EB B2 10 2C 5A B6 05 E5 46 4D F4 39
 6B 49 ED 96 59 21 47 08 D3 6B 13 E5 92 83 92 A7
 33 E0 6F 13 EE C4 54 CB 1A 0E 70 96 5C E3 C5 F2
 A5 20 4E FA 6B DD 04 BE 56 D6 52 68 90 E7 7F DC
 9D 08 88 0A 21 75 E1 96 4F D5 86 19 C3 40 8A 3B
 50 B7 EF 05 30 F3 7B 27 3C A4 08 61 26 2D C2 8D
 83 DD 34 9A 2A D3 59 4D CF EC CD 54 43 59 3E 26
 B5 FD 67 C6 C3 5C 71 93 E9 9A 54 E9 85 6C F1 12
 B4 41 CE D9 03 E8 19 49 5E 27 9D 3F 0D B1 01 1A
 96 A4 48 EA 32 7A 71 1F 9C 42 EA 72 7B 21 7E CA
 E3 EF 4B DE 57 1B 2E 09 CD 47 A4 91 A1 E7 3F A3
 C0 D3 FF 9F 5B 58 DB 36 D8 4C 61 00 57 12 8F FD
 94 1E 75 E5 93 09 47 67 85 5C 00 5E 7F EF 07 C6
 0F F4 E5 97 FB FC C0 3E 84 7B 9A 94 1C 94 94 5C
 AC 8F AB 16 73 17 CE 52 51 CC 89 FF DD 75 19 B1
 1C F7 F6 E9 B9 CD DB E4 9C D6 5E 56 CC 6A 46 78
 4C 2F FB 6B 38 E7 84 59 CD 23 32 CD 6F EF A5 C2
 0C 16 79 B2 E1 CE 17 89 C4 29 F3 AF 72 69 2B C9
 58 8D 06 97 81 B8 B9 39 4E BB 9A D3 29 A2 CB 97
 0D D8 0A DB 5B 29 0F 74 3F C7 F9 60 B3 CE 09 E8
 B6 76 81 3A D7 69 03 21 A1 19 B7 87 B1 20 91 B3
 DC 6E 9D 89 28 50 A4 28 61 53 99 94 5E D9 C7 02
 E3 D0 30 07 C0 60 A8 9D 43 83 9D 4E 0D 82 B4 99
 FA AC 93 23 91 52 BD 66 D7 0A F1 01 96 B1 78 86
 54 13 9D 14 C0 CA 86 D6 27 CB B3 6E B8 8E F1 9F
 1E 09 7B 60 2B A1 EF C5 3C BF F7 28 CE 8E 0E 9E
 4E 5C 01 9E 7E A1 B3 E4 0D D8 8D 73 F2 37 57 D3
 75 C3 46 C5 26 28 D7 02 6F 27 41 3A 96 84 D6 3C
 B5 83 AB D5 91 42 15 97 C6 78 04 9E D2 33 DE F6
 CD 9E 9F 18 4F 4E F3 BE D4 A1 4E 3C B5 BB 93 7A
 E6 4F A0 69 AE 07 F7 F1 16 C8 16 91 0F BD 59 94
 8C 51 B0 A5 D5 FA 51 90 5A 38 12 65 3C 6C 16 DE
 24 CB 13 B2 AF 5E 60 D4 C6 87 29 FE 92 D5 BD 13
 68 5A 5E DD 5D 1C 24 90 A4 8D 33 43 DD E4 C0 31
 20 77 3C B3 66 60 20 F7 ED 43 06 C1 BD F8 D5 0E
 D1 D5 70 17 53 35 F7 98 FB A8 BD F2 D8 77 E6 7D
 EC EC 48 40 A5 ED 37 97 14 09 F0 08 89 32 44 36
 7E E9 BD 60 27 22 A9 0B 00 20 01 78 D1 80 F3 1F
 20 E0 52 11 77 93 35 1A 4C 70 8A DC 36 58 39 F6
 4F 3E 2D 01 11 91 92 D4 09 34 F7 55 CC 99 AE 1F
 47 C5 D1 D1 8E 7D 65 FC 2F 5E 06 CD EC 55 83 2D
 E2 BD 63 64 E6 78 56 00 17 79 B3 B1 2B 1B 08 49
 9C 4A D5 F5 F2 89 19 CB C6 14 43 7A CD 7C 29 02
 6E A8 C2 20 CD 50 4D 57 E4 4E 97 E4 24 18 DC BD
 9C B1 A3 0D 83 64 53 9E C6 D1 D9 B9 AF B4 21 DC
 B1 49 D0 92 FB F7 84 6F E8 10 92 84 0D 10 1F 39
 7A 74 3C 49 6B 8D D2 95 68 47 D1 29 7E 88 4E 7A
 40 7A 31 E1 C4 5A 78 D7 B7 7A 7D 01 1E A6 C5 96
 60 47 9E 1D E8 7D 4B 76 6A F2 55 5C 8C 69 10 F2
 8F C6 DC 42 D8 6E FA DA 1E 41 F5 C4 29 91 D9 4A
 BF A2 53 F4 39 1F A6 B4 C3 14 A1 13 66 55 46 B3
 46 B4 1B F4 55 3E A7 D2 AF 59 60 86 78 D1 47 62
 D5 0F 6E E1 7B D9 99 B7 DF E8 50 EB 70 42 26 82
 27 F6 A9 F6 F7 D1 30 72 87 80 C3 D7 C6 A8 65 0F
 2A A2 48 D4 4A 11 B1 DB 9E 6F B6 7F AB 18 B9 68
 D5 3C E0 E1 40 3E 1D 30 9C 8A BF 74 A6 B3 18 37
 ED 16 34 57 86 8D E2 42 6A 89 56 BA 6F 0F C9 18
 B0 39 54 B5 8A E5 9D 55 5C 66 1F AB 54 CA B1 89
 80 93 87 AB E1 60 A0 6F 5C 2D 55 CF 79 EF 0B 34
 F3 6B 8C EF C9 B8 CD 15 DC 67 F9 7A 2E 6A 2D 15
 7D 3E 4B 24 DD 3B 56 D3 B2 B9 58 0D 81 7E 0B 36
 FB C9 CA EA 27 20 D5 10 E8 9B E0 7D F2 EF BE 26
 BA 62 C6 4C 93 9A FB 57 4D 09 C3 25 97 7D DE 22
 BD 67 67 F0 D9 0F 40 B4 63 2C 7A E7 83 86 33 8A
 04 AE 38 55 BA A5 C6 1B E9 6F FA 86 6E 6B 0F 33
 64 01 1B 6B AB EE E4 17 C5 3F D7 41 32 F6 31 0E
 9E D9 E3 BC 33 DB 5B B9 77 92 B5 7B F0 75 AC 0E
 2F 79 10 64 5F CC B9 30 61 13 5A AA F7 78 BC EA
 10 18 49 F6 4A 32 81 92 92 29 01 50 E1 62 79 82
 A8 E5 B5 55 AF 3E 49 E2 4F 1E B3 E3 07 E8 2F 8A
 98 7B 83 19 77 B3 A3 D4 6A 25 1F C0 B2 38 B7 44
 91 FD 15 58 55 E6 5B BB 79 BB EA A7 D6 8C 69 DC
 00 73 C2 8A 57 1E BB 79 58 D6 A4 D8 FB 81 63 42
 D1 39 24 B7 32 2D 17 2F 0C A3 6A 80 ED 42 A2 10
 F9 B5 B9 A3 F0 D6 FF 08 4F 85 55 4E 59 9D 71 DD
 FC 71 B0 2A E8 6A 5E A4 6E FC 91 9B C1 6C B1 E0
 95 7E 9B 45 2E AA 5F 83 05 A5 54 5D 3E A4 88 5C
 BA 0B B7 32 EA AD CD B2 7E E4 86 E9 D0 B6 A6 7A
 ED A9 88 18 B0 BD BA 19 E9 DA 33 23 9A 81 1B 39
 48 3F 23 D5 F5 72 4F 3D 2F 82 86 31 92 37 F3 4E
 72 4A 75 6A 9C 9F 03 30 65 F0 8B AD 52 2B A8 33
 72 94 77 61 90 90 7B A9 AE DF 90 44 56 41 81 5B
 43 7D 80 AD 9B 10 F1 57 06 EE FD 2E BC B4 EE 7F
 F2 AE 32 53 8D 0A 41 D8 44 ED 76 CD 37 32 B6 85
 DA 92 E3 6D 08 F1 F8 A0 02 4B E2 5E 53 73 DB A6
 28 49 6C CB 48 EE 36 51 C5 F3 E4 8E AE B6 4A 0F
 54 06 C3 5A 97 5F 64 0F FF 93 5A 83 2F 21 8F 78
 28 7F 0E 31 E3 F8 3A 1B 27 51 14 68 14 62 BA 91
 46 95 37 DB A8 62 13 DE DB 65 52 71 F0 F0 FA 39
 B8 D4 A5 19 16 77 7A 7F A6 4E 53 83 0A 51 46 DB
 B4 16 DB 79 69 B4 8E 19 D5 9F B4 78 37 7D A2 F1
 4E CF EC 58 B2 2E 80 5E 35 58 AC 00 C7 92 F8 AA
 7B 4D 24 5F FF CD 44 29 0B 65 01 D0 E5 C3 CB 33
 C8 C1 03 49 E1 B3 5E 36 EA 44 DA DA 84 24 58 89
 1B 20 D2 2E D4 06 30 1C 53 F3 31 FE 29 26 F1 84
 04 CF 8A 31 1F 96 B4 6D 42 97 71 58 31 48 1F 8E
 F9 18 91 AD 1F 12 90 2F 26 57 74 97 B2 74 1F 3F
 BF D8 A2 B3 20 33 6E D9 F5 FA 16 DE B4 CB 51 28
 7C CF 41 5E C6 87 4E 03 C3 D2 29 AA 38 A4 87 AF
 8B 94 3D 78 11 42 76 D4 EB 16 28 91 87 0C 01 7E
 D2 B2 5E DB AA A9 FB EC 32 8F B4 35 C1 5D 83 C4
 E9 A1 A7 17 25 8E 87 D0 FA F4 5B 7E 87 67 9D 47
 C9 B8 2E A1 29 1C 06 FB 2D 19 E6 AF 9C 18 D9 79
 DD EA 2E 3D C7 A7 26 A9 56 92 52 86 B4 E3 EE 1A
 0F A7 67 66 C1 F0 D8 EB A1 94 46 84 52 52 7E 32
 69 09 EE 1B B7 99 AE 0F 85 63 DE B7 53 B4 97 2B
 82 42 9D 50 FA FB 34 3C DB 79 50 D2 69 E0 9A 6B
 C7 F6 55 CF F1 CC 52 64 87 0B 94 1E AC CC 79 AA
 D9 F3 7B 3E 3A E4 A1 7F C5 B2 5B DB 27 2B C8 BD
 85 34 34 57 90 5A 3D BD 37 30 51 8B 61 E4 2F F6
 88 30 78 E2 23 00 4D 44 0F D2 41 5C DC 33 8F 02
 68 EA F7 F2 17 7A CA B2 B7 C5 3C 6D 67 34 32 7F
 49 26 B9 F3 01 1E E2 46 83 10 7B 15 9C 17 55 1A
 24 C7 5B E8 DB 56 F9 11 1F B1 A2 8C 63 64 5F 2C
 EA 28 58 EE 1E 92 55 DD D8 FE FE 7A 4A 66 4D 0A
 D0 C0 0D 7C 8E E8 ED EC 8A 6E D5 F5 4D DF B8 79
 6E D8 36 07 C4 93 87 D2 A7 1D BC F4 69 28 64 73
 80 D7 F3 47 27 E4 F5 10 5B 97 AD 72 46 E2 54 32
 F6 51 42 65 97 7A 51 DE FE 41 38 3C 41 64 7E 40
 55 A2 E0 6C B9 4C 92 56 31 C6 63 5E 36 D6 7E E8
 F5 B3 B7 CF AB 5A EE 85 95 8F F8 77 0A B5 D3 F1
 3D C1 46 D0 3C 84 0F E3 74 8D 1C 98 30 36 F8 76
 28 CE 78 30 83 D5 06 9B 85 F6 E7 1C AE AB F8 D8
 F7 2B 8F 77 C3 FE 40 F6 B7 68 DA 59 D2 3C 42 48
 18 CB 25 80 15 AD EA 4E E3 63 44 C9 DF 5C DC D5
 7A A2 99 73 7C DE FE 78 5F DE 2C 44 A1 3B 7A 85
 12 D3 29 51 65 3A 9A 7A AC 9F A0 83 F7 99 25 6C
 12 CA 4E 45 BB BA 9D 09 2C 85 47 DD 8E CA EE D7
 A1 44 EB 76 AF D6 56 08 84 1E 91 8B BD A9 04 8D
 A8 12 1B 36 0C EE 10 9B A5 5C 97 D0 C9 40 BD FC
 75 0E 24 26 38 8C 57 8B DD 40 BA 13 09 20 A8 86
 3B 0D 0D E3 2C 49 3B 8F EC D6 32 3F 6D C1 D9 25
 18 83 02 26 EC 52 6A 1C 50 18 98 9E E3 78 9A 4E
 44 AB 7D D3 07 37 D3 0A C3 F4 8D DE BC 9D 01 86
 15 32 59 2F 8A FF C9 F2 43 FC F3 25 93 DB CC 9F
 2C B9 3C 52 1A AF 9D 73 3F AD AC D9 72 6E 70 D9
 E1 9D 63 A0 8C 01 89 E1 D9 0E 07 BC 5B 1A BF 35
 8F 9D 08 D0 5D BE 01 A0 16 47 CC A3 D6 B5 8C 88
 D4 F2 92 A3 8C F1 AA D7 0C ED EB 11 F5 EF 3A A0
 84 B2 E7 61 4B 79 09 2F 7F F5 9A 6B 5E 6B 72 CE
 A8 2A 8D 08 96 EB 4B 37 E0 3B D8 28 6D 42 B4 5C
 1E 63 24 E0 F8 E5 F2 97 C6 9B FF 96 FC 9B 42 C7
 8D 6D CE 44 0B 78 B1 6F 5B EB 7A 33 B5 8D 8C 2F
 9A 17 D3 F9 33 ED BB 86 AD 60 70 10 18 D2 E9 6D
 43 7F E5 51 BA B8 09 76 93 CA AC 40 C3 66 1F 26
 D6 2D 63 C6 B9 2E 52 51 94 0B 5A 7C F1 70 3D E0
 46 CA 4F B6 47 A4 69 8B 63 E6 F0 03 6A C5 AC 62
 F6 0E 37 85 C4 F5 BE 3E 27 E9 06 AC 2F 79 89 CA
 05 8C 28 32 6D 6B 23 69 01 E0 04 A2 A4 E0 A9 D2
 05 76 F9 8E E2 D0 16 70 01 1A 79 72 7E 1E C8 E1
 9E 88 A0 B4 C9 77 C6 6A 77 E0 57 2F 01 40 F0 E4
 E4 05 31 BB F8 4A B2 5C 14 D2 0E C5 23 2D 25 25
 DB E9 36 22 7E 7E 7C 83 06 6D 4F FB C5 39 D8 50
 F7 6D 94 84 F5 9D AE 28 5C BE 32 90 B3 6A FD 31
 E4 49 4E 0D 20 54 28 34 BE 78 E7 30 75 08 36 6F
 AB 77 14 8A B9 B6 F1 2B 1E 21 C5 6D 06 0F 26 69
 C0 D8 D6 B1 77 F9 6C C3 DB 9A EA EA 0A 29 C2 A2
 91 BA 5E 37 06 CC 75 94 BE 44 8B F6 94 92 CF 59
 DD B8 C0 FA 66 E7 25 3E 0A EB A9 08 2F BC 08 20
 3E 93 9E 5F 68 BB 73 02 E9 2C 39 2A 1F 3D 9E 19
 A3 48 3E 04 4A BA E4 B2 03 FC 1E BA EF F1 7A 57
 24 45 6E 68 74 26 57 FB 37 67 51 35 ED 81 A8 74
 3A B1 6F 40 A2 25 46 51 6C FC 9C 7F 5C FF E8 BC
 44 10 89 04 82 13 C1 08 2E 0A BB 6E F6 A7 98 B8
 DD 11 C4 F9 46 DF 1C A4 7D D8 5D 4C 46 C5 CE 43
 DF 47 D4 53 61 50 0A 7E A2 88 5F 91 72 78 C3 7A
 EA 73 CB B6 47 1F B6 C1 84 5D C2 A3 24 2A 16 D2
 DF FD A5 A3 C7 E4 62 49 12 12 A6 AF 86 B3 87 CF
 44 00 1D D9 34 D6 B7 51 1E 82 FD 49 C6 66 10 4A
 4A 0F A4 31 F3 4A EE 9D FE D5 EE 25 33 38 54 07
 9D A0 25 CB CF 6B EB 71 56 56 F8 5A 10 75 F0 B5
 65 61 D2 E6 BA EC 0D D2 2E 82 D6 BB F8 29 5A 57
 57 C6 4A 86 09 42 32 58 36 78 D7 16 9C 6B 8E 16
 B6 8B A0 D9 A8 33 00 92 D1 3D 3E 93 93 F5 EB 10
 43 E9 FD DE 91 F8 50 1B AE D0 CB 1E B3 BA 8D 3E
 EB F1 9E 66 DC 9C CB 7B 90 FA 8D 25 01 FC DA DC
 0E 37 23 66 41 92 97 4F 12 78 55 3D 70 A3 32 05
 52 32 77 A5 2F F0 E1 F7 4E B7 CF 45 05 E8 52 91
 90 DD 8D E5 CD B5 0A E9 3D 95 81 95 5F B1 FF D5
 5D 5D 85 D2 4C 3F 41 42 2A 2D CD C2 99 78 2C 8E
 47 F7 28 13 C2 E9 A2 E7 3B 46 B8 3E B0 35 E8 76
 09 14 4E 0B 5B 8A CB BE 08 6A 46 DF F2 2F 55 37
 AE CE 7C 6B A9 D8 08 D7 70 56 F9 11 84 5F A8 9C
 4A 5F 39 75 63 0E B7 9F B6 7E 47 C1 43 4F D6 4D
 B8 57 69 6C E7 45 EB 03 B9 7A 5F 16 CF 1E FF 8C
 58 8F 1C F8 C6 0A C8 09 AE 2E 63 9B 6F C0 6E B8
 E3 8B B7 AF BF 35 E9 4F 07 7A 2C AE 40 D1 41 11
 42 21 5E A0 68 07 6F 84 DB 3F B7 82 F2 87 C6 3B
 E0 8F 3A 4D F1 6E 0A C3 9D 9C DF 4D D4 77 16 D2
 06 4F 4E FB A4 52 D9 B1 AE 84 6D FE A5 7A E4 F8
 1F 5B 8F 19 EA 75 F7 AE 96 8E 58 35 90 F7 B2 41
 A2 53 67 1E 86 67 08 68 B8 E0 C1 3B 28 90 A9 8C
 F5 3B BE 85 64 6B 0C 1A BC 66 12 85 5F 95 88 6D
 01 2D 4F 00 49 62 22 65 20 C5 E8 44 BF 65 2B E6
 23 89 C5 13 46 73 2A AA C6 F1 69 E7 36 22 62 ED
 2C 5A 1F CA B8 C2 2F 5A E2 C6 9E 42 75 14 A0 4F
 01 B6 05 47 10 97 EB 3F 8F 2E C4 4D 69 34 C7 51
 18 ED F8 C4 9F EB A8 59 CB D4 01 AB B0 EA 99 44
 9D 47 59 39 3D 56 30 67 85 C6 FC 84 45 AF 67 BC
 07 A4 BE 95 0F EB 71 CD D1 CA 37 EF 7A 1F 4D 00
 11 75 D3 79 FE F8 FE 69 A6 8C 87 02 31 68 E1 98
 D7 8B 32 B8 7A 57 FF 41 69 63 09 AF 2A 42 89 64
 1C 11 EA 87 B5 5C A9 B9 9E B3 46 48 DF 9D 41 D4
 0B E3 8D 87 A8 92 3D 02 9D 1A CE 09 6C 3D 0B AF
 00 E3 B8 A6 53 5B 2F B5 E8 FF 2D 51 F7 AB D8 12
 DF CB 82 97 7D 28 90 98 4A A4 42 04 F6 7F 30 73
 45 16 8F B5 3A 38 57 93 6A 53 9F 32 63 18 0A 29
 54 87 4C AC F8 D4 CB 9A A1 C6 D5 FB 02 0D 28 88
 36 EF 9C 4E 4A 4F D1 86 96 3F F5 CC C5 E1 C7 85
 6A 13 39 AD BB FA 09 20 1D 0B E1 4B F6 7C 7D BE
 24 A3 6C 68 B3 60 BF 06 94 4D 93 C8 4D B1 0C 80
 5D 17 5B 13 89 E5 C4 A9 D5 76 44 5D 65 D4 16 3F
 74 F9 3E 30 E5 E9 F3 04 17 E7 55 37 C7 DA FA 99
 4A D9 02 BD 4B F0 E1 C9 C3 3C 43 F6 ED 52 58 CF
 E6 F4 1A 8F 41 8B D8 18 B8 75 83 4E FC 16 39 79
 28 8E C6 59 5D 6B 3B 5E C7 AB BA 93 6F 1C 43 51
 75 A3 C2 60 55 77 5B AA 62 B7 71 D6 F9 77 6B 4A
 C7 46 37 1C 63 E7 44 CD F1 A1 64 BB 06 FF B1 F4
 14 71 E1 DC 29 3B 4C 37 75 98 89 53 32 6D 79 D6
 0E 02 8B 69 56 E2 8A 36 92 D6 84 FD FF 34 83 8E
 B7 4A A3 90 29 4F 56 3F F9 E5 ED 3B 46 72 5F B4
 D1 F0 F3 F4 A4 72 08 E1 78 9C 2C BB 11 D6 80 2B
 13 E4 D7 36 F0 7D 82 63 42 8D 6C F6 EB F1 1C 69
 8C 54 2C C8 3E 94 8C 3E 0E FF D0 06 8F 54 68 B5
 CA 3D B4 6A 7F 41 B7 41 89 61 FC 19 3F 79 1C B0
 B1 B8 6B 43 75 20 05 42 6E AC C5 D4 3B 76 B4 F8
 30 1A 23 23 30 1A 32 29 C9 DA A9 4C 28 17 66 07
 59 EE 23 EF 4D A9 0E 9A 25 E8 43 0F DD CF 7B 4B
 3B BC B7 A6 10 B5 83 DD BD 9C 87 99 13 67 94 29
 40 12 D3 D9 10 6D A9 F1 AF A6 46 AD 6A C6 95 52
 DF 7D 3F 56 A1 21 C0 92 5C F9 93 17 55 9A EC 26
 19 80 DD B9 0D A7 5A 42 63 50 5B AF 2A 50 FF 52
 EF C5 4C 85 77 D9 3E 90 48 7E 6F A3 7F 10 56 07
 C0 16 19 43 7B 4F 7D 91 03 85 57 CE 86 CE 2B B6
 29 79 70 FB D3 DF A6 A3 62 C0 23 8E E3 53 F5 B7
 5C 66 A7 3A 8A 2E D6 71 BF 16 FC FE 97 69 F7 6C
 77 AE E8 ED 8E 3A D7 47 80 96 C5 5D DC 4C D8 5E
 32 DA 2C 4F 7E D0 FF F4 C3 D6 A6 76 38 57 36 26
 7F 0B F0 A1 81 A1 2D 58 1D D6 58 B7 A6 4E E2 C0
 19 05 AA B1 B6 1C 8E 96 95 E1 92 95 0D 5F 3E A4
 A0 89 25 CB 8D 44 9B F8 C7 9D E4 08 02 C2 04 AB
 6A AE 1A A2 A7 06 48 88 C8 55 54 3F 31 37 19 51
 40 1A 03 81 C6 91 8D 95 C9 1C 69 F3 9E 87 4F C7
 F4 4A 64 A5 62 0C A9 32 FE 49 8A EF 30 E7 92 4B
 3F 6B C4 8D 49 65 75 C5 98 31 D5 58 6F E5 DE 91
 15 6B 24 88 FA BF DE 0F AB BA F3 8C 71 C3 14 F6
 76 C4 8B C8 06 94 49 3C 27 0A FB 97 12 7D FE 1C
 D1 FA 10 90 04 31 6E FA BB F0 50 A0 54 00 E6 69
 FE E1 D0 DA DE 25 27 D9 41 D7 5A 34 E4 36 D2 DA
 55 DA E5 64 85 6F 77 D0 B6 51 A5 F7 0B 37 69 5C
 42 47 C7 C0 37 32 4C F8 EB 29 D4 F0 12 55 71 45
 B1 1B 8C C5 A5 B7 CE 98 4F 63 0C 42 9A EE BC 54
 F5 C9 BE B7 72 75 27 8D 31 CE 1F FE 97 CC 81 1D
 32 D5 CD B4 F4 87 6D 99 BA 6E 4E 74 D6 BF 9D C4
 5A 42 26 C3 97 E5 84 D6 EF F3 48 1E D6 7B 12 FA
 DC E7 0D 54 68 74 5C ED 5D BC 02 86 B7 94 97 87
 73 69 18 32 91 07 14 37 04 C1 C4 05 6A 5E 0D A0
 33 10 E2 43 10 7B 28 6F 99 0E B4 6A 19 A7 C3 30
 01 42 B6 B4 F0 33 CE AA DB 78 84 C1 8B CA 5C 60
 B9 C5 0F CA BA E8 5C 16 23 7A E1 40 56 51 C9 BC
 7C CD 7D D0 97 EE 06 BF 9A 6C 18 30 FC D4 42 4C
 A6 47 E8 EE E7 AB E8 DA 68 AD 13 80 9A C0 BF 0E
 51 D5 9D 80 37 F2 EF C8 51 79 53 B4 96 05 A0 24
 55 A9 26 4D 9F 70 3C 78 07 E6 A9 50 CA 63 1F AA
 F5 AF 5B FA 38 00 06 63 9F DC 3D A0 87 25 EA 37
 7D 0A AD F1 C0 CB F3 93 48 5B 49 55 B9 5A 40 E9
 1D AA F1 D5 E1 4F A5 79 C2 05 D6 BB 21 1D 73 99
 57 7D 6A 00 23 01 C0 F3 E5 0A 68 D3 E2 91 5D 46
 8E 75 F0 1C 85 09 1F 71 BB EA F8 CA 79 99 32 8A
 42 1C 0E 9A B8 D4 18 19 70 4A 7D 61 AF 9E B7 37
 09 CC F5 CE 8F AD 2D 89 2A EF 2A 76 E2 7A A0 27
 2D 7A E4 8A F0 27 AA DE 77 72 99 BF BB 50 AB 97
 C4 B4 94 6F 73 0F F1 42 32 1A F5 37 86 5E 61 AD
 04 C9 84 80 65 9B E0 62 5F 72 69 ED B0 84 AC 63
 A4 61 31 FC E7 7D CA D1 E5 93 0E 5C 1D F9 B5 97
 D2 56 0A B9 B2 22 9F 95 87 54 69 A2 47 0E 94 64
 EE FB D7 BA 59 D0 98 3F 4E BE E0 5F 78 A9 7A D2
 78 6E D6 B9 23 DD E2 74 5E C5 3F 4A 73 E4 DB 3F
 AE 7B 1B 36 8D 8A 0D E2 AF 17 3B 45 E6 F3 CC 69
 77 3F E5 53 08 EC CA 95 15 30 39 A8 F4 CF DC 47
 48 88 9C E8 E2 93 5B D9 BB E1 63 B9 63 58 71 95
 F7 AC 5D F9 54 7B 3B 00 E1 DD 95 78 12 68 BC 0A
 72 69 23 31 5B E3 99 D1 64 B3 0A F1 86 AB 1E 60
 0B 74 E3 29 56 01 B6 F1 D8 7F 6D 86 57 3A FD 90
 09 D8 6C 2B FF 67 80 84 C2 1B AC A0 F6 47 A3 FB
 71 7A 18 47 E9 01 FC E4 B9 1E 3A CE EF 49 31 8B
 00 4C DE 1D 1E FD B1 7B 2D 9E BF 54 84 EC 6B F8
 86 F1 C5 D7 2E 4D 7F FE 04 DB BD 2B AE AD 64 D5
 71 A1 5F 63 00 1E B2 C1 A6 2E 55 AC 27 DE 59 7C
 DB C5 91 24 25 AC BB AF 89 8E 64 D4 17 F0 B0 06
 4A 21 38 9A A7 14 4E 4B 46 B1 CD DC 11 68 C8 A2
 2D DC 46 4D CA B0 A9 0B 78 06 06 0E AE 8E 8A E8
 AB 98 33 6A C6 DF A6 28 C5 2E BD A7 A8 E7 BF D9
 B7 89 33 14 10 38 7A 95 FE EC A8 16 AE 06 D1 0B
 84 B6 BD 4A 5C 8B D3 F5 7A 5D 0D 07 64 F3 A9 28
 1F 56 AF 6E 0E B6 13 6C D9 B2 E4 A3 19 3A 56 02
 5B 98 75 F5 D8 9F 16 B9 98 54 41 69 70 1B 42 44
 ED E5 78 1F F2 E2 F6 AB A3 54 A0 7B 52 CB 6B 05
 53 6C 29 F6 19 2D 26 08 D3 0B 15 31 2D 55 D8 75
 07 E5 0A 2B 0E E6 A2 24 11 CF D5 02 C4 49 3A CB
 4B F5 24 EE 16 0C F3 9D E5 E7 DB 17 04 EF 5E 28
 13 13 EC 5B 5A 5A 5F D4 63 43 FD F1 7D 63 6A 09
 BB 96 E6 CE 59 17 EE 8B 5C EE D9 34 E8 20 5C 6B
 9B 10 84 41 51 AC 7E 79 91 D3 08 5B F8 CC 7E 01
 15 C9 2E 2F D5 2E B5 7E 5D 3F E7 BF 5E 06 B3 FC
 77 AD 51 67 2E 8D 4C 8A 7F 10 FD DA F7 EE 4A F2
 73 82 72 1F 44 BB EF D4 06 2E 8C 1E 02 3E 4F E3
 27 6B 8F E5 0E 39 9C F2 74 38 22 AF 90 5E F0 02
 59 19 89 B9 F1 17 8A 06 A0 72 61 66 81 D3 2D 4D
 53 1B 42 30 AC D9 7C 72 93 89 C6 05 21 95 C0 05
 F9 23 0D 00 1F 35 26 55 38 7F CC 31 5B EC 9B BC
 AB 25 4C 87 16 1D 61 20 AB D9 AE D4 62 F3 F4 9B
 A6 C6 2A DD F8 9A C0 92 2B 63 78 8A A4 8C E6 66
 6D A4 4F 6B 29 8A 4C DE 25 63 F1 2D 6C 5B 9F 9E
 AC 9C EC 5B 20 A5 CD 7F 64 4F 06 ED 96 56 00 0F
 13 9B 0E E1 DC D5 FA 25 43 28 3B 7F F0 65 93 29
 4A 94 B8 2A 82 60 56 54 B2 05 A8 18 0A FF 7D E6
 A6 DA C0 72 79 F1 EF 80 69 D6 C4 14 53 91 9E 80
 04 79 FA 32 62 37 22 C7 26 22 4A B5 77 2A AC 95
 46 A8 03 6D B5 CD 01 8A 11 90 D3 80 83 CD 3B 48
 9F F5 2F 20 B7 6D A5 A3 07 B8 08 71 FC 8E 02 3B
 0A E2 6F AA 1D AA CA ED 03 C0 71 DE D4 AC 37 D1
 E0 1E 27 4F 58 19 2C 58 79 B4 1F 4F C5 07 99 4B
 DC EA A0 D1 6E AB 67 DB 4F 90 D5 73 25 3F 83 FD
 DF 4B 13 3F 18 46 51 64 F7 E9 B1 C7 19 7B 4B 32
 98 23 82 B9 A7 60 92 34 F3 B2 DE 51 58 41 65 FA
 96 C0 8B D4 CA 2E A7 44 46 AA 37 D8 AF 46 84 F4
 EE DC 78 95 6C 13 30 EC 99 A3 6D 05 99 E2 21 E6
 67 A8 50 04 68 28 37 5A 6E AA 03 CC FF 16 57 1A
 4F 52 0F FD 7F 01 CC 94 87 28 AF FE 4A 32 71 E2
 A0 45 3F A6 86 A1 FB 3B A7 2F 5C 62 7E 5B AC BB
 F4 D6 4F 1E 1E 69 96 45 0A CF 5D B8 54 91 53 A5
 8B B1 D4 E8 B3 12 8C 8B 06 79 1A E6 50 2B 3E 67
 09 DC 7A 40 61 24 2B 64 3B 90 57 F8 78 C4 D2 A4
 87 A1 B2 35 6E 13 67 83 53 56 AE 5D 6E DC 27 11
 01 5C 7D 8F 3A FF F7 0D 67 52 D8 16 49 E0 47 A5
 9A 14 03 0B 66 96 94 C6 D9 0B 78 28 24 75 5E BA
 76 52 D5 4D E6 B7 89 84 25 0C C1 E9 9C 93 60 F5
 75 D7 F8 13 66 55 E9 2F 72 4B 10 B6 37 AE 05 BD
 ED 16 40 C0 82 1A C4 E5 5C F6 10 B2 E5 DA 7E E9
 84 8F 03 DB 20 F0 88 45 2D B9 8F ED 4A 6A A7 8B
 E2 4B C1 B4 CD 6B 2C 41 99 7C EF C9 46 C9 53 11
 8E AD 0F 81 A1 90 DD 5A 95 16 F1 8A CF 71 F0 C7
 D4 FF EA 40 3F 29 34 F0 CF 31 F6 C5 45 8A D4 30
 83 EC CD F7 1B 90 F1 DD 13 73 66 F3 BA 31 18 04
 51 E7 54 7B E2 7A EE 1C EB 6F CE B6 9B 74 BE F5
 9E E7 7C DA CF 06 22 3E 80 74 D9 9C CE 10 2D BC
 F2 4A B6 F3 AB 22 2E 21 41 1E 52 99 B9 DB 52 7A
 E8 A6 93 16 AC 2B A1 A9 71 05 5D 78 B4 10 C7 B6
 26 F3 DC FF A6 C3 44 54 88 E1 AD 3B 10 E5 BF FB
 4D 63 CF D0 45 7E 38 54 D2 11 3C B1 3E 16 3F 67
 B7 BF 05 32 08 77 8C EB 75 68 1B AF F2 2F 18 FA
 A4 FA 8F 9F 9B A6 32 2F B7 55 40 75 48 6E 96 25
 9E 5C 2B FA 6F C7 E1 6F DF 12 AC 5C 87 BA E2 F7
 DB 0B 28 94 83 F0 46 26 3C 99 92 FA 59 3D E7 2B
 C3 1B FE CE 94 68 0B C9 56 1F F6 2E 7E 1F CA 26
 70 B6 6F 7B 5A 40 E5 4C 2C C9 5E 86 90 D6 C6 2B
 14 E6 99 A7 FF EC 86 70 56 A1 D4 A7 1C 20 58 BC
 1F D4 58 09 30 31 61 AC 89 A2 ED E9 12 B2 AC 50
 DE E4 1A 82 F1 FA 73 62 DA 0C D2 AE A5 74 A9 60
 B3 11 D5 59 BA 85 C9 65 98 C4 4F BF B1 3E DF 87
 BB 80 B3 D7 DD 13 8A AF A0 67 E4 E6 87 94 7A 14
 77 FB C5 4B 79 75 BD 9F 8C A1 C4 BD D8 8B 02 CC
 1E C1 27 51 76 6A 16 C4 A7 FC AE 82 52 00 63 38
 F9 0D C5 3B 2D 57 E9 C7 A2 40 6F 89 FC FB F3 F2
 F7 F9 47 69 F3 91 13 7D 7C FD 90 AC D0 FB DD 50
 B4 2F 4B CC 0F 12 07 42 5C 84 ED C8 9D C7 9B 1A
 FB A1 06 75 F7 C0 58 E5 3C 4A 93 6F 40 66 EF 8B
 AF 68 B4 BB 5D 21 29 F5 09 5D F8 E9 8D D3 8D CD
 F0 7A F3 E3 48 1D 8C D5 92 81 35 A1 C6 43 2A 0F
 74 6F 96 E0 73 7F 37 A9 F1 6F 51 30 B6 12 0D 30
 F6 FB 98 E4 33 58 2F F3 E4 3C 65 53 50 C0 03 61
 71 F3 1A 70 44 4C FB 3A 46 E5 67 00 BE 4A 44 53
 FF 96 1E 88 53 D4 19 31 F7 76 0A 53 CE 15 FB E8
 17 4F EC 6C F1 B8 35 97 86 5D 17 C3 D4 52 14 3F
 68 F0 EB D1 F2 20 7B 96 28 39 58 B3 79 41 0A 5F
 57 E3 A3 92 F5 53 E1 9E 9F C8 A0 02 78 2B 9A 37
 FD 4D 46 49 13 68 02 77 61 90 90 96 ED E7 AC 90
 91 01 EA D7 86 4B 0F 81 B6 13 2B 58 87 B9 A5 EF
 3D 99 93 A5 F0 3F 0B ED 26 E9 03 7F B9 A4 C9 58
 11 2A 2C F1 F1 6B FE 29 B2 C8 DA 3F 5D D5 99 21
 82 A6 67 14 55 0A 48 DF F2 94 CF 2D 3E 56 72 A9
 A4 78 8D AD A3 55 26 F8
* End 2686178123 782014810