* LTspice Encrypted File
* 
* This encrypted file has been supplied by a 3rd
* party vendor that does not wish to publicize
* the technology used to implement this library.
* 
* Permission is granted to use this file for
* simulations but not to reverse engineer its
* contents.
* 
* Begin:
 69 CF 11 1C 70 72 14 E4 20 06 C8 A1 20 25 CE 12
 93 D7 A1 27 61 B2 F8 E0 15 39 8A D7 73 BA 97 12
 50 01 93 FF C9 D3 1D 69 9F 80 E8 FF 51 47 A1 2C
 21 16 74 04 66 D0 B1 50 2A B5 13 F1 80 D9 2B 43
 1C CD C3 26 F1 FD 64 0F FC 50 51 DD 83 19 9D B8
 16 7A D7 3F 2C 6D DC 67 B8 43 E0 83 52 AB A5 4D
 21 B7 9C 48 6C EE 12 F8 24 54 17 4D 24 65 DA DF
 CE F9 A8 3E 48 15 E3 68 81 55 C6 C6 1B 00 CD ED
 1C D3 66 69 82 02 E5 34 71 AF 63 5F B8 AE 37 6A
 DE F3 19 F3 B8 43 48 1B C7 39 7B 47 37 A9 40 96
 6D C9 33 AF FC B8 5E 7C 6D B6 A4 04 28 36 31 62
 C1 88 E3 7A 10 03 DD 15 15 85 30 87 0E 76 D3 DB
 C0 22 D4 C0 36 9D F5 E4 52 94 73 27 96 8B 5E 54
 0D 44 76 C2 BD BA 48 45 11 A9 A8 FC 2B 44 AB 78
 47 85 80 AE BA 08 63 79 E8 DA 95 AA 85 96 A5 BE
 8B 2C 7E DF 3F BE A6 B6 D7 7F 1C FE A7 1A 59 61
 EC 26 CC 39 9A C7 D3 F3 5F 4C DB 1C 20 AB DC A0
 9B 09 E7 98 44 FF FE 20 BA 70 21 30 90 1A 42 D4
 06 2C EB F8 0D 82 FC F6 97 AF 24 86 82 89 5B B9
 B5 23 58 C4 02 0A 3F 6A 1D 5D 5A A7 4C 27 64 60
 9E 0A 18 89 0D 7F 20 39 FB 77 3E 52 C7 17 85 FE
 D9 92 0E D4 F7 B0 64 49 78 4C E7 76 72 66 5C 30
 8B 95 5B 32 55 3C D1 1B 3E 89 4B 58 1B 41 B9 93
 7D 0B BA 98 98 BC FE 9B 2E 2A 87 4A 00 FB B0 68
 56 40 31 55 37 E2 D1 9E D4 38 EC BD B8 A3 7E 4E
 14 15 51 CB 54 7B 6C 60 4C 65 BE 75 CB 2F FB 15
 F0 1E D3 92 7C 8E 70 E5 D9 81 89 65 42 C5 03 6F
 DD C0 30 FC F0 98 10 CC D1 E7 D3 1B 6C 13 EB 28
 3D AB 60 D8 3E EF B4 EE 4C 1D 8C CC 4E FD FD 5A
 E1 CD 74 74 CF 05 B1 F4 4B 37 4C 88 15 1E DD 78
 5F EC 1A F6 0F 58 97 08 5D 01 2B D6 FF 91 C1 A8
 C5 07 2B 04 10 66 66 AC DA 02 FB 74 54 5C 95 4B
 92 2B EE 36 55 0E 84 A1 E7 53 19 AC DC 88 51 0C
 C6 84 02 70 49 75 72 EE A6 5B 77 D5 1D 1F A7 EE
 26 6E 77 DE 53 AE 40 08 4F 8A 53 3D DD DE 9F 7C
 66 AE 13 8C DB 09 40 09 F4 2E 9C 76 AA DB DB B3
 71 83 DF 21 2B 5B 49 FB 1E 60 A4 98 FA 48 7F BD
 CC 0A C2 06 4D BF 7E 68 E7 43 6D 06 F6 89 19 CE
 2E 97 C5 AD D6 4F 62 CC 75 18 AE A8 BF DA E2 8F
 3D 72 CF C5 53 7A D9 C3 BD E9 5E A2 88 9B E6 3E
 74 86 F3 8C 5E 5F A6 CC DE 41 52 B3 F7 AE BF 34
 37 98 C8 07 40 A1 04 D0 05 05 3F A1 88 3D 7A A8
 90 9F 0A 2B 55 9C 34 36 61 8D 09 76 F3 61 77 4A
 A4 87 CC 6E 8E B6 14 FD 5E 06 47 03 8E E1 A3 41
 B7 D5 24 F6 3A E5 0A B8 D7 10 8C 8F 74 8E BC B6
 12 F3 10 0E 5D 74 57 F9 6A A9 AB 96 A4 9A BB BD
 E3 6C 6F 38 EE BB 9B 26 52 42 3B 62 20 C5 9A 7F
 6D 83 68 9D C4 1B 42 D3 7D CF 7D 60 34 B4 E9 3E
 42 B7 2C D0 0D 87 89 AA E4 5B 1C 74 1E 41 80 2B
 AD 17 6B FA 87 D6 4A D3 B7 65 26 E7 45 89 CD 8A
 63 55 F4 51 D5 DC F9 56 65 06 53 43 D7 D8 D8 F5
 B8 9D 2C 3A 1D 7B 17 73 42 E2 F3 D6 FB 7A 8C 8B
 3F 74 B7 F6 06 E0 4F 7B C9 21 13 AB 00 3E 7C E6
 B5 E9 64 67 4A D6 0F 9B B3 D5 BE BC B3 4A 2A 5B
 C5 20 76 9C 39 43 65 0D 5C 02 57 4E FE BD BF DC
 3D F4 BF 87 5D 79 E2 E4 2F 4B 22 4B 82 03 8B D0
 B8 8D 9F DC FD 58 B8 AF 86 8E A9 72 E1 64 BC 26
 5C 75 0A 4C B4 FD C1 6B 0F 8F 7B E2 1F A5 03 CF
 94 13 71 4D AE 43 7B 93 EE 31 73 14 E0 68 0A 79
 EE D6 E5 35 A4 DF BE 09 9A A6 25 30 2E 96 92 02
 A0 59 8E 23 48 DB DE BC 13 E4 E5 56 F3 35 35 57
 24 42 F2 44 3D 56 5D 77 C4 8E 1D C1 65 0F 62 50
 CE E3 0A 25 05 DA 33 02 05 6B 4B 5A E4 B5 86 51
 E1 AC D2 4A EF EE BF 29 2C 02 76 28 E9 32 4E 1D
 57 6D B8 BC DF 1B EE B4 D7 3E AB 3F 33 CD 96 F7
 76 80 78 B4 25 A4 DE DC 53 43 46 3C 2D 80 30 4C
 40 58 48 BB 7D A9 EB F7 E0 BE DC 81 E2 3F A0 8F
 B7 ED 2B D9 6C 9D B9 D9 29 08 33 F6 41 D7 A3 C2
 72 4F 45 18 26 B6 33 D2 CC 6C 9F 77 1E 28 B9 EC
 AC 98 41 47 A1 88 A7 37 A9 4B 70 C9 D0 3D 00 94
 36 F4 F2 93 5B C9 E9 8A D5 62 E3 F1 11 D9 00 3A
 E7 8E 1A A1 70 BD 95 C4 83 DE 8F 1F 38 B4 7F 2B
 3C B5 E4 0B F0 6E 3A 3E F5 AE 9E 91 73 F3 63 68
 FA 92 54 08 AE 32 59 9F F3 F9 B7 D8 E3 E2 D2 92
 CC A1 F8 65 1A 00 A1 21 2A 8C 99 3E 3F 50 8C 08
 7B 75 3B 76 99 D4 D4 04 7B 5C 6D 4C 49 EA B5 B9
 99 50 CE 3C 81 45 95 74 FF 5D 17 1D 09 DE ED 74
 BE 7A 51 98 9E 81 FF 70 01 EF 0E EF D5 CE 03 F1
 CB 86 5E 0E 10 00 99 03 5A 85 CD D4 65 D6 6A 7A
 32 F4 9E DC 1E 82 7D A5 BE FC B8 0B 15 1A 92 99
 E5 F1 B5 FE 5A A5 6D 8F 5C B3 70 FE FF B7 3D 4D
 42 46 EE F7 FD F9 64 A5 9E 57 74 53 50 5C F4 AF
 80 A3 1C 62 DA BA FA E6 C5 3A CA 73 B5 AD 85 60
 50 52 40 C0 7C 14 C7 A0 6B 2F F7 11 C0 8A 6E EB
 21 D6 0F 29 7B F1 52 54 B2 59 8F D3 CD DA EA F0
 31 BC 95 E0 4D E9 09 47 F9 05 B7 C8 07 03 55 49
 31 60 70 11 2F C8 7B 78 C5 20 E4 95 EA 77 F2 BF
 9A C7 96 D2 D1 22 37 0B 00 6A 13 F1 76 CD BD 7C
 49 5A 2F B7 EF F5 58 F2 A3 9A 9C 89 A6 EA 79 BA
 EF F7 00 4A 74 07 DA 3B 2C 0A BB DD 07 A4 1A 5A
 06 BB 6B 44 19 D2 FC 49 B6 FC FB BD 1A 52 4B DD
 50 AC 52 63 C1 FC 66 CA 22 B4 DC B5 EB 53 AE EB
 D2 9B B3 68 8C 18 36 19 03 C1 94 05 5E 99 04 27
 A0 EF A0 64 99 36 11 48 A3 1F B8 44 47 B6 4B 85
 35 9E B3 99 D1 20 27 58 27 20 B9 6D A8 C3 BE 90
 7B 95 E1 D3 E0 DF 0E 3D 83 2D 0C AC 00 F1 4B 0F
 94 76 F5 5E 64 CA 2A 7E C4 1C 28 EC C9 5D 32 24
 B6 AE 7E 21 7B B0 C7 86 8A DD E2 ED 42 92 FD 83
 5D 1F B7 D0 80 B3 39 27 0F 15 E8 76 C9 C9 D9 DA
 E8 6B F3 45 57 06 A5 16 02 16 7C 49 22 C2 90 31
 20 12 0E DA FD CF A7 FE 3C B6 A0 D9 CA 2E 15 0D
 CD ED 0C 74 07 16 FB 9D 62 E3 1A 3A 17 58 1E 24
 D6 7B E9 C9 1E 71 4F 12 3C 8F B8 E7 B2 B5 3D 78
 FF 8D 35 74 5E 46 B0 CA 27 C8 4C E4 1B E1 CB 61
 5C 84 97 EB 6F 0B 5F 5A 2E 07 AB 5B 8C 78 EA 0E
 E4 9A 77 39 01 7F 3D 75 87 61 2B F2 A2 09 61 9A
 85 A6 CF 1F DD 7A 37 76 1F 54 E3 59 B6 77 93 9B
 46 5B 0C FA 80 E2 F0 7D 27 45 74 3E A1 2B 4C 1D
 7A 14 75 87 DD 17 70 E7 13 D0 7B DA A1 08 C2 42
 8B D2 7F A3 F3 C4 93 86 D7 07 CC 84 3A 3E 08 C9
 1B 02 81 69 85 BA E5 D5 1F 26 F8 C2 64 96 51 1A
 89 E8 8C 51 6C D5 C3 9C FF CC 0B 01 57 9E EE 65
 D3 80 92 04 E5 CD 7C FB 04 E6 06 DA CA F3 3F F7
 6D 38 5A 18 3F FC F8 FA 12 5E 81 AC D8 0F CE 10
 6F 4B 2D 81 8D 83 46 22 98 29 69 B5 57 A0 C5 F1
 31 C3 93 45 E4 FB 21 5C DB BF F6 10 47 1A 47 A9
 25 EA 6D BB 91 3A C5 1E 65 20 B6 AB 54 D7 A3 90
 33 EC 54 40 05 BA CA 13 FB 39 F0 15 10 00 4C D6
 9B E1 BB BD 9F CE 3E 20 3D C7 CC BC 27 28 DF 03
 70 9A C2 86 BF FB 40 A0 7C 84 73 32 59 BD BE EC
 1D BA 30 6F 33 06 CF 57 08 36 FF 88 5D FB 6E A2
 84 F4 79 82 2A D6 A7 FF 81 16 33 07 B7 52 BA 12
 68 F3 8B CE EC 2B F6 46 3E DA B1 B3 0C D6 8E AA
 17 C2 93 C3 FE CE 99 80 95 7B 7C 02 82 A8 77 5E
 17 7A 0E C8 72 30 4D 4D A8 3D 73 D2 50 BB 8E 5F
 36 E8 0D D5 BA 46 6C D0 85 5C DE 86 A1 95 E2 89
 9B 03 CA C1 C1 5D 26 1F 50 89 C2 05 55 8D AA 42
 63 CC D7 16 00 A7 DB 48 12 38 A6 DC C9 23 4C 21
 8F 37 B6 35 8D A2 6A 75 7F DB 63 22 53 C0 F0 4E
 09 7B 2A D2 42 B7 7E 11 AA 97 87 EC 90 F9 92 D9
 54 F6 11 0C DA 25 8C BA BD 48 48 69 F0 42 F8 8F
 2C 5A CC D5 34 1F 1C D0 32 6C A3 26 D0 58 A2 9A
 06 63 34 A8 60 9C 1D 4B 5D 61 6F 73 68 32 5C 49
 F5 CF 70 E9 1A 5B 3E 47 79 BA 11 0C 0A 30 A7 8D
 FC C3 65 25 83 3F 13 88 80 5F 18 C1 22 10 E2 6F
 92 2A 60 5A F2 B2 54 52 A6 C2 25 8F 63 F4 5C 84
 71 81 B6 A8 1F 8B 92 CD 7B 37 D4 FA B3 3D 75 5E
 A1 C3 88 98 48 AD 7D D0 21 F7 07 60 3A 74 31 37
 50 74 27 FD B2 EB 8A D3 05 24 DD 93 2D D0 22 FC
 DD 7F 1F 80 DC 56 51 9D 79 23 C9 14 9C CD 6C BD
 87 02 0F D7 F6 D6 C4 35 AF 34 08 87 63 C6 99 B5
 47 5E FA F7 F0 B7 0B 92 78 C8 D9 2C B3 DC 15 A9
 B9 F9 C8 28 6D 1F F7 F1 8A 5E 40 F1 7A FB 1D 63
 CD 87 26 28 DA 78 84 F4 13 D1 42 25 65 CC AD 67
 C8 02 36 98 E9 12 01 2C BD 76 A0 82 CF 75 6B D1
 EA BD 57 95 54 7C 34 1E AB F7 19 D7 E1 83 D4 B0
 7D 04 3F A5 29 17 2E 98 E5 80 60 EE 10 64 27 BF
 6F F3 68 7C 1C F1 60 D8 99 59 10 AB AE 4D FB B1
 18 61 AE CF D8 55 DF 94 75 2D 80 31 00 F8 18 2F
 4C 0B 56 C7 F3 E2 CC DB 7E 18 D3 9B 4C 27 D8 50
 38 A0 3B F5 2B 0E 5F 9D 1F 4D 69 E4 0A E8 29 59
 AE 5C 86 6C 7C 88 61 4F 64 06 2F 4E 0B 23 AE B1
 1B 02 4F 2A 03 AB DE 59 4C 99 8B F8 38 D0 FE DA
 36 E2 C7 FD D7 78 AF 1B AC 55 12 EF F3 0E 63 33
 4D 3C 70 19 ED 21 B3 AB B8 9B 7A E1 31 42 1D 1B
 B7 CD E3 89 D0 4C F2 8C EE A7 83 01 7A C4 59 A4
 EE F6 D6 14 F9 60 90 2E 48 AA 8D A3 7C 78 3E B4
 8D 5A 6D B7 C1 93 BF 59 77 FE 73 88 A4 79 23 51
 A2 65 44 E6 9B 55 DC 15 D0 18 66 DD 3F 28 98 26
 58 96 BF D2 69 4E B2 BC 48 B1 27 0B 7E 57 B1 DC
 48 18 9F 7D FF D6 DF 7F 32 51 48 A4 F7 0D 0F 5B
 A6 C3 14 9A 69 4C D3 32 C8 FD C0 5E 33 BE C4 20
 00 6C 1A 2E 7E E3 4A F3 F9 16 4E F8 19 CF F1 7B
 D2 EE C2 AE C1 6F 1A A9 85 F5 07 6A 66 C6 6C 56
 84 17 FA 21 C9 7A C7 23 82 A8 0B DC 0B F2 DF FA
 3C D7 CB EC 07 83 9B A9 67 52 5F 70 86 F7 91 29
 45 52 4E 65 6D 45 F5 E9 E4 4A A8 5D F9 CB 02 6A
 1D 93 8B BC 10 18 8B 72 D0 C2 CE 34 C2 77 C7 56
 15 0A B9 2B 43 E0 17 5C C8 1E 7B 0E 48 25 CA BE
 14 75 31 10 73 C8 EB CD F5 BC 42 8D 06 10 BA 11
 1A 66 3E D1 56 E4 F4 C5 0C 6E DF D4 F8 AB 8B 4D
 D4 02 69 6F 4E 58 7B 4F A1 05 7C 22 93 AB 1D 44
 B7 97 31 47 D0 41 0E 72 41 76 D0 59 23 84 E6 6D
 94 EB EB 55 7E 23 44 A1 35 D2 23 36 91 D5 A2 5D
 BB F4 A8 80 75 2E 67 A0 43 0A FF EE 08 61 F8 35
 59 65 57 0D CE DE 28 88 6C CC 4B 18 E5 40 3B 76
 AF 31 0F 2D 30 C3 7F B0 51 D2 1F 3F CD FE EE 5C
 F0 EA 7C DC EC B6 6A 9F 25 F5 EC 83 B9 38 BE 95
 EA F0 EA DB EE A5 B3 04 0B AA D5 59 F9 8A C6 A6
 53 DC 22 9F 09 E6 86 30 15 00 E2 12 C5 CC 0B C1
 93 F3 9C 9F D3 73 46 07 EE 5A 02 81 D4 23 6C 91
 48 9A 11 F9 23 D3 47 D4 D2 34 AD 01 D8 EC BE 7A
 3E 20 02 88 61 D0 BF 4D 5C B9 41 A5 D5 F2 10 58
 2F AD 60 87 EE 12 AC 31 22 89 50 9E 11 8E 21 39
 F5 12 91 AD 9B 8D 01 50 A1 BE 88 38 A9 F2 E6 17
 68 0C C1 4C 39 12 95 05 A4 BB 6E 9A 14 1C 2A 09
 51 8F 49 FA CA 7F A9 4C C3 80 29 6D 0B 01 96 2D
 91 19 24 BB 97 DF 23 08 D2 45 2E BB 3D F7 E3 19
 60 4C 22 A0 9A 9F A1 F6 34 02 28 0C 93 E2 00 71
 6A F4 D4 96 EA 2D 70 0F 1A 94 D6 0C C3 4D 1E AF
 A6 49 80 7C 2A F0 08 82 3D 32 C1 11 50 4D F5 AE
 49 08 9D 26 60 95 91 2C DA F2 A6 A8 EA 06 AA 5F
 03 3E F0 E6 74 C1 47 F0 50 0F E8 C1 22 A7 B6 95
 85 39 C7 1F B6 F4 3E 77 4B 0F FB 7B 07 E8 50 95
 E2 F0 64 99 62 D8 B3 69 7F 50 77 D3 FB 49 F6 32
 E0 CC C8 DA 91 21 20 49 34 B2 34 4D F6 79 A8 27
 3C E4 58 9A EF BC E7 1B E9 5D 15 F0 15 A3 88 9C
 A6 E8 9E 64 60 D3 AA 29 6F 1F 60 53 BC C9 AC 09
 B3 4E 5E 97 4B 6C 90 9F CA C2 91 C7 71 AF 84 A1
 AA 21 E4 08 9F 01 17 52 13 35 BD C6 CD 1D 97 27
 48 64 61 A5 FD 2F 88 C2 F7 1A 05 49 D2 B7 FF B9
 92 96 1B 2C 04 58 A9 E0 4B 4C 4E 88 47 F1 0A 14
 64 C8 D6 FC 61 8E 5C 73 87 DF 91 1A 3C E3 3C 98
 9E D4 BA 35 FB 6B 53 89 41 45 3E 5F C7 D3 95 50
 4F 19 8C 1E 57 2D C6 8A 0B D8 FF 4F E3 41 0F CF
 91 32 F1 0A AC EF 04 43 42 E0 B4 C7 97 6E EE 58
 D5 3E 92 BC 0E A8 45 B2 69 88 96 7E A7 9A B8 23
 AF 5A CB 63 9B DD 80 C2 78 AF B5 EF 4D 53 B8 D2
 6B DC A5 46 D4 66 B2 DA 69 EE EB 74 C2 B1 B3 FD
 AB 69 D3 B8 9C AD 63 A7 FE 83 1C 35 A9 EA 7D 3F
 E0 3A 14 40 32 D3 D8 50 2E 08 86 D4 CF 01 80 C0
 83 9F 6D 72 99 CB 2C A0 08 05 C9 65 1E 29 BE 67
 82 A4 F8 91 13 FD EA 19 BD B8 7A 7A 6E BC 74 88
 47 5A AA BC 4B DE B7 CA AF 8D E2 13 0C 44 52 2A
 CE 3A 82 0F CF F7 5C 14 FA D7 04 C8 D9 AF 2B 9F
 D7 D9 3F 93 31 8D 38 23 BD 01 D2 04 EE 01 D5 F0
 97 E5 AD B6 70 60 74 11 BA A6 FE 40 EA 11 0E 35
 D0 01 1F C8 F4 C6 A7 4F B4 3A 4C 54 98 14 59 0E
 74 B6 38 04 12 5C DF 14 52 FF F6 69 0C F9 AE 6C
 02 BE 85 B2 81 87 3D 29 BA B2 3C 81 5A 0C A0 5B
 0F EB F2 D0 56 D7 FA FA D7 65 29 77 20 76 90 12
 09 84 8E C9 FF 97 32 C5 DE 69 0B 04 03 07 B4 13
 A2 6D 84 38 4F C6 6F E2 6E 2F FD 43 74 89 CD 89
 40 75 19 1C D0 E9 AC 00 D6 B5 D9 13 A6 76 48 30
 BA A3 5E AA 31 5C 3D C2 EE FC 72 BC 64 D6 45 14
 FC 0D 9C 5F 11 7D 9E FC E3 A7 ED 2F E3 F6 17 3A
 DE 78 13 14 2B 62 56 43 E5 37 6A E6 61 98 70 4B
 EF C8 7B A7 36 AB 6B 08 DB 24 8D 34 2D 28 85 32
 5F 8F 5F 71 1B 54 12 4F D0 5B 8F 56 73 3D B6 54
 48 B0 92 86 A5 FB 91 42 1A 67 86 4F C5 DF 29 40
 5D FC B8 DE 72 07 CD 38 DF F9 C8 4C B8 4D A2 3E
 60 69 74 30 2A B1 A4 FC 37 E0 4B C1 2C 99 F7 BB
 C2 A6 6B 6B 9E 09 AD C5 AA 3F B0 13 75 A2 3A FA
 E6 B8 96 A5 85 23 8F 02 D0 A9 8D 60 A1 CC A4 35
 DC 82 B2 C0 7F D6 DE 4B 9D B2 0A B7 31 77 AA E7
 3F 54 43 87 89 FD 62 3B AD 31 D0 8F F2 7B 25 B6
 0F D9 34 D9 50 A6 B9 AF 4B BE 23 26 9E D2 9E 72
 D6 77 5C CE FB 51 E4 C6 68 D5 5B 40 FD DF D9 0A
 15 96 D4 B4 0B 1C E4 90 6C 37 E4 DC DE D4 FD 94
 B8 4C F4 AB 51 D5 6A C3 52 BF 41 91 D7 DC DD 79
 62 26 99 52 B0 85 EF 05 43 19 9A 0F 0C 2D E5 AB
 24 AD 75 42 34 57 9A E3 EB 78 D4 D1 81 05 22 66
 5C C5 80 AA 99 02 9E 83 6D D3 9E E8 0E E7 92 AC
 B0 06 4B 9C DE DB 7B 92 2A BD AC 2E 86 16 B0 4E
 CB 6A 11 E7 9F 74 B5 F9 72 00 CB A6 E6 92 F0 13
 0D 44 1C C2 77 AD A9 C3 2D 48 CE 9A D8 80 05 12
 E3 29 7F 83 0F 1B F8 CA A8 5E 11 C1 C3 C6 3A F3
 0A B4 88 C5 DC 01 4B 10 C0 99 8A BF 2E 3B 52 77
 60 A1 C1 2E 48 8E 25 C0 11 6C BE 49 ED 43 B8 CA
 3B 92 B9 BF A2 40 56 12 AC 70 B3 35 A8 76 5B F0
 83 15 75 36 38 D7 02 1F 80 0A 44 87 44 D0 9C AF
 A5 B6 82 61 AB 42 68 5E 6B 33 A4 8C B3 22 59 07
 A6 E8 01 46 1E 3D AA 1A E9 76 CE BA E2 3C 13 DA
 17 5D 19 FA 81 CC 51 95 57 0B 55 C0 94 B0 48 90
 CF 8A CB 3E F7 21 51 1A 38 76 A5 DA E6 2D 6F 81
 13 8A 70 15 E7 3E C3 C7 A9 14 1D F1 9B E5 55 F1
 EF AA 0C 0F 87 17 F1 DF 90 D8 DD 4C 21 11 79 62
 C7 26 89 E3 56 E0 DB 69 98 56 24 37 24 B6 85 B3
 17 A5 A9 A2 D1 A2 22 BF A8 05 F9 7B 20 7C 3D 62
 2C C8 4F 15 33 4A 27 54 EE 03 12 12 83 2F FE 5D
 65 FB 82 0B 34 58 B7 55 BF F9 A1 24 F9 52 A4 49
 85 D5 47 70 5D 91 3D 97 49 08 C1 68 3F 6B 87 6C
 F0 7A 46 7A 62 66 5B 20 50 E7 49 B2 FC 46 73 88
 BE 9C E1 59 85 5B 43 33 5D D0 C7 2F CD 32 82 FA
 2A 51 C5 9E 40 57 4F 56 69 70 E1 3B 93 2A 67 EB
 FC 62 A8 53 1C 13 D7 9E 2C A7 CD 03 B4 A7 FF C9
 4A 47 8F 89 33 89 31 AF CD 30 75 FA C6 87 B6 0B
 84 32 84 0E 56 37 DD F9 A4 A4 1F A3 CA 0F 47 38
 E5 A5 53 F5 2F 12 F2 F4 92 61 09 B0 88 5B 87 C0
 F2 E0 F5 58 91 ED 7A 4E 0F DE 3D F3 86 BC 5D F1
 44 8C 37 FB 48 70 C9 E9 FB BB 7E 59 4A 2D 62 7A
 2C F6 B0 A7 E3 4C 36 DC EE 73 EE 50 0C E4 59 85
 CA D3 1E C6 8D AF 98 C6 58 10 AB A0 15 F8 28 C4
 7E 52 DD 1C 14 F3 21 8B EA BE EC C3 E5 75 E3 EA
 EF 52 DC DB 7D C3 02 B0 2B AD EC 56 59 BD 5A 3E
 CC D3 A0 D7 E0 32 98 A6 32 0B F6 05 FE BA A5 82
 11 25 21 97 DD 10 E1 63 5B 05 96 6C A8 1B 6B 76
 60 1B A2 ED 67 D9 48 87 18 E5 25 35 22 65 DA AF
 88 44 9E 3A FF FD 09 91 34 AD 10 96 7A EF FC 89
 B8 35 8A CE EA 3B FD C3 57 DE 15 F7 AF A3 55 D5
 DF AB DD 45 B8 B7 18 E7 FD 27 13 3B E5 0D 26 3E
 C5 55 78 AA 3B 04 C0 22 70 A6 60 7C 8C BD 31 16
 F9 52 47 92 19 AE 6E FF DB D8 AA 9B 65 E4 CD 8D
 81 24 5A 39 B5 88 AA FD 95 3D BD 13 08 7E F2 85
 63 13 F4 7C 84 45 3B 66 A6 2E 72 1C 2B EC 68 D6
 03 4D 7F F6 82 35 C2 CC E5 B4 C8 A0 66 8D 28 1A
 92 99 25 19 1A 54 E6 D3 2D 98 26 B1 82 84 73 D0
 1B DD 44 DD 85 79 1E B4 34 71 CE 36 38 A7 8E 4E
 FF 52 BE 75 8E 30 3B DF 33 7A 0B 59 52 20 9F 2E
 FF D6 44 03 F1 D6 6A 11 5F B4 14 3E BA 76 99 44
 C1 11 7C B5 01 AC 7E 67 70 2E 8F 69 49 C3 B8 92
 DC A6 92 BD 94 05 34 A2 74 8C 71 54 5F 34 D4 E1
 95 C9 3A 2F FA A0 B6 74 BE 1C 99 1C 42 BC D8 96
 88 EF E2 B9 F0 85 94 2C D8 A3 FC A7 1D 08 C5 0D
 36 80 1E 71 14 5E 5F 9E 1D 6E AD DE 7F 46 86 A7
 DB 3B C4 6D C7 68 EC F8 2F 8A 0A 4F C2 F3 18 57
 56 1A 3D 88 9A E7 7A A4 A3 D0 2B D5 F1 48 34 63
 AB 98 63 6F A7 02 6E 1D 57 9A 14 B5 37 3C 60 4B
 1E 15 65 A5 7F D7 F7 86 73 0B 63 75 49 60 28 7C
 F0 BC C6 11 C5 32 B4 DF 75 4C 9F EF 3B 4C D8 82
 05 4C 35 65 AB 13 2C 0C 32 0D 7B B1 01 89 B1 63
 63 DF 05 1A 57 7F B5 C3 37 1F 2B 4C 94 39 F2 55
 AC C6 62 19 C5 90 92 19 F2 44 1E 59 E8 AB 28 D8
 80 54 33 7A 59 E8 B9 E5 11 38 20 C5 F9 E7 F6 1E
 3D 16 E4 0D 0C 60 84 3B 49 64 99 BA 3B 7C 1C 4E
 34 6F E8 DC 7F A2 E4 18 95 9F 1E 71 42 73 22 EA
 64 23 28 8B 7B 37 9F CF 4C 3A EF 5F C4 22 92 92
 33 36 9A 35 28 73 DF CA 33 44 3E 6F 8B 00 C2 76
 8D 7A 06 84 FF DA 44 8B 82 19 69 77 C5 DB A1 C6
 15 13 B1 09 38 25 69 87 95 04 77 9E 48 28 1B 00
 2F 25 6B 2D 04 06 73 53 25 80 D1 70 15 04 60 49
 D5 56 D9 A6 B0 84 8A 8F B5 50 8B 42 CA 93 A1 C7
 F8 17 B9 A1 2F 17 BA B8 3A 8C 40 5D 3E D3 61 4F
 35 CA 4E 61 D3 F0 7E 5A 46 E7 7F B6 82 43 F5 28
 D3 D8 CF 8B 4D 4F 0D BB F1 E4 D4 83 5E 3C 03 87
 94 F5 B4 38 A0 5B FD F0 75 7D AB 70 EC 50 37 70
 FD 4D B8 51 D2 61 3D A6 73 DB F9 08 28 B0 22 52
 82 E0 69 CF 2B C9 2B 5B 61 81 CC 01 19 42 A7 F3
 AC 1F 83 A7 EE FA 54 D9 C6 8D 21 D7 29 2B F7 70
 3F A7 94 73 EE 0E 9D 6B 96 BA FD 06 52 82 2C 57
 94 63 CC 4A 11 76 FB 3F 1A B8 3F 55 7B 5C B2 E0
 77 23 54 CB 79 DB AB 39 10 B9 81 AB 08 3B 0C 26
 87 BC 5C 28 33 B6 F5 6F E3 EF 52 54 88 36 88 25
 4B E9 CB C7 B2 68 9E 4C 62 B8 55 C2 AC DB 93 26
 BA 5E C3 4E F4 3F 6E C1 EC CA A9 CB 59 0A 9F 4D
 A9 88 1F 39 F6 C6 77 61 1B FB CF 26 57 4B 51 BD
 16 5E 25 DB E8 DA 61 47 BC D9 E6 D1 52 79 FB 6E
 6F 29 E5 C1 9D BA D4 7C C3 E7 31 1A 93 A2 37 9A
 9E 85 2A 5E 99 6C 64 65 27 47 B7 53 E8 D6 D9 18
 AD 21 B9 3D DD DB F7 B2 6F EB FC BB 6E 2E 4E 7E
 BD 15 52 F9 24 2E A8 E1 DA B7 14 7C BB 54 05 33
 83 1E 76 6D C6 82 15 C4 84 D7 EA 36 1F 33 09 24
 BC D0 22 7F 17 C3 57 D0 6B 04 0F EC 6A AE D5 59
 4D 35 18 4F E8 ED 6F 88 88 0D B1 AA 3A E5 C4 C7
 AF 0A 63 81 03 A3 BF 14 E5 55 04 F8 19 3B 84 94
 1E C3 BD 0A 13 2E 5D D0 4B 83 53 3F 18 94 3D 6B
 87 F9 57 97 D3 8D 68 E4 44 B8 EF F7 35 89 41 16
 C7 A3 1A 79 CF A1 F2 C7 24 13 92 9A 0B 93 41 14
 62 FE C6 08 40 75 E1 7D F7 CC 80 2B D6 BF 84 01
 D7 E6 41 79 EC D9 D4 3C 17 CB E9 A8 1B 99 71 AB
 6D 4D A3 59 41 FD 91 52 D6 21 5D 7F B8 87 76 9D
 E5 B4 C2 9B C0 D9 24 B4 79 1D EF 33 96 5F EE 40
 28 8F DE 75 CA 24 DA 78 4D 41 B8 6A B7 84 04 C0
 2B FD 84 D8 2A D9 AD BB AB C3 F5 5D AE D3 69 AB
 7A 02 94 9A 0C C5 00 8A C0 98 0E D5 E1 98 39 75
 CD 19 1E 13 93 9C 22 BF 53 6C 75 74 FB AF 6A D5
 17 DB B7 0C EE 07 A0 B1 1D BB 38 37 68 DD 6F 7C
 2E A3 0D DC 96 65 EC 66 21 EF A1 58 A4 D4 43 B2
 BE 50 73 22 01 E0 74 7A 40 43 B1 3B CB 2D 3B D6
 A0 B2 D4 94 01 65 CA 06 8D 10 BA 4D 62 56 5D F6
 59 97 1C B5 4A 48 A1 56 E1 02 9A BA CE 06 45 7D
 A6 E2 70 73 DE 57 E0 B5 F7 3F EE 14 34 70 35 B9
 68 A9 0F FC D4 44 CF FB E4 8D 62 96 21 CB E1 AD
 15 EF 6D 32 61 28 74 45 18 A4 66 75 AA 6F A7 6F
 69 7D 9E 74 46 FA 83 36 CF 72 B4 3A CA 33 20 B8
 9F 1E E1 11 64 24 E9 3E 6B F7 1C CB B7 16 0E 86
 EC A5 9C 2F E4 E1 9B 40 19 42 EA B9 02 9B 2B C0
 88 76 22 08 23 E7 24 AA CB 2C DF 1F 41 53 44 FA
 51 A3 A0 36 EE 55 57 11 CB 06 38 15 A2 C1 D0 C7
 14 9F 0E 2D 7E 8C 9C DD B1 E1 E3 89 43 57 9F 8F
 94 27 97 48 BF B8 A4 72 B2 32 4C A0 1E 3B C1 60
 22 40 29 29 2D 52 B5 D4 E5 71 D5 AA 7F AC 88 15
 B4 45 46 B7 ED 6E F9 C5 DB B5 8F 05 C5 FA A1 FD
 5E EA A0 95 3E A1 B6 80 EC 02 E2 DC 01 A9 22 79
 8C 85 F0 A4 AE 11 05 93 CE 4F 59 1F E4 76 1C D7
 86 5B 34 D5 8F 3B 93 88 5F F5 78 2D A4 A2 A7 92
 EA BF 51 B9 D5 69 5D C3 52 34 E2 1A 9E 48 39 FF
 B3 C3 EF BF 6C C0 02 88 97 E8 E2 09 B3 4C 8C E6
 6D C3 F6 B6 D6 7A 6E BF E0 A9 AD C9 88 09 8C FE
 5B BE 27 41 6E EE E4 34 E8 2F 5E CD A0 A3 25 61
 A4 85 D7 E8 CF FC 36 A4 FA DD 8F 96 23 B1 1A 65
 96 0B 3A AB C1 AA 48 24 5B BB 4F 7A 5F 52 67 61
 35 DA B9 17 0C 43 4E 8F CA 17 E7 41 37 85 15 FA
 9C 7B D0 EE 9A A7 39 37 A4 96 BF B8 3F C8 B0 4C
 0D 28 94 72 22 B2 B7 53 DE 5C 41 48 41 D2 73 E1
 9F 44 A8 BB 20 D2 73 71 3D 4C 20 93 C9 E6 54 91
 47 B0 64 3A F6 B6 B2 14 16 6A 3F 47 6B ED 85 9C
 E4 10 91 7C AF E4 28 F8 C8 91 31 45 A4 7A D3 24
 FF 9A E2 9D 6E C3 2C 7A 07 C7 1E 4C 47 DF B1 0C
 97 62 5D 23 30 A6 31 9D A3 E4 16 E3 FB D8 57 8B
 6F 17 1B 25 C7 88 28 9E 4F CB 0A 52 89 1F 96 22
 78 D0 C6 45 AC 5D 18 04 7A 5C 60 1A 1E 12 33 A9
 77 51 37 D7 92 63 20 7D D4 B1 6A F4 DD 7C 05 32
 B0 95 F3 92 BC D6 62 11 12 F7 3C 7C 77 A7 D2 85
 F4 A0 27 A1 4B B7 BD 6E E8 D9 6E 27 BD B9 3F D8
 8B 04 88 DB CD F1 F1 92 E7 15 86 97 1D 33 6F BE
 96 53 5B 55 08 7C 20 D7 49 7B 02 9B 6C 14 6D 37
 0D 96 AA F5 49 85 75 73 6D C5 99 89 1E AE C3 E6
 E8 F0 7B F8 CD EA 70 4F 08 8E 73 DF B0 F0 AF F7
 65 98 6C E5 25 8A 27 F4 9F A2 2A 08 E6 0C 24 53
 3D 4B AA 81 CF 14 85 AB 77 58 D1 4C 25 0D 38 3E
 31 9B 49 F6 28 F7 53 32 CF 20 F6 78 AA 6F D9 C2
 94 44 97 5F 89 68 86 57 F8 C9 F5 9D E2 46 52 A9
 CC 63 A6 59 59 7E 52 CF 19 7D 30 32 B9 3B A6 FF
 AF 5A FC 4F 87 80 AB A5 81 4B 03 90 95 65 69 8C
 BF 14 25 C9 EA 10 DC 12 C5 F0 4B 8A 1C 6B 27 3B
 FE 21 19 72 76 90 27 E3 F2 4E 3F AE D3 87 3D FC
 32 8B 24 5A 19 0F BC BE 58 46 80 7F 33 C1 07 A3
 76 D8 52 4A 21 3B 82 29 AB 45 E9 64 12 B3 FE 44
 17 71 BD C6 33 27 F1 10 0C 80 BA F4 40 B8 0A CB
 DA 6C AB AC C9 52 BE 26 98 4F 38 D3 DF D8 6E 27
 01 85 36 96 4D 36 61 3B 99 D9 A5 2D 7D 7C A0 00
 E6 23 F6 F9 D1 6E A9 F8 C5 21 DC B4 C6 EF FA 5B
 16 4B 19 F0 1A 0C 1E 03 83 9D D5 48 81 A9 95 BF
 2B 49 5D 55 F1 9D F3 BA B5 86 D3 BE 87 B7 59 D7
 9D EC 00 AC 84 6A 80 1B 58 A5 D9 E8 04 04 5C 51
 C3 8C FD 4C 1B 14 F2 05 0F 93 D6 6D 4B 37 97 F1
 20 E3 3F AC CC 6B 96 F0 67 6C 09 B0 A8 6F 09 FD
 46 0A 99 EA D0 2D 6C ED F2 50 CC 4F 8D 27 12 12
 3E 80 3D F7 8A 4E FF C0 35 23 CF 54 77 34 51 45
 8D A1 FE A9 C7 B1 40 0C B7 F8 D6 AD 84 CB F3 49
 11 4B 5E 6A A7 E7 1F D1 69 72 FD 04 7E BA 70 C8
 4D 01 80 4F 34 4D AD 3C 83 19 EF B4 05 A2 91 09
 B0 44 1D C3 73 19 88 1B E5 93 13 D2 06 2A 1C 5D
 B6 23 50 87 3D 52 58 D5 B3 F7 9E 00 3D 12 FC A0
 5D 0B 22 1F E3 AE F1 8D 83 CA 78 30 EC 6D D6 C1
 CD 35 1C 6D 3A AB 98 52 B6 60 91 58 76 63 1B 8C
 D4 5B 36 B6 96 53 D5 B0 9E 17 F2 C5 0A 58 19 3B
 0F CD 76 83 FB BB 68 B2 3E 15 60 8E 57 D2 77 09
 D4 FA 21 E4 E7 DA CF 8F 37 FB 28 4F D7 11 34 98
 33 53 6A D0 3F 09 68 D6 97 98 9B 51 3D 50 5F BE
 98 21 D1 58 E1 EC 22 E1 D1 3D 3E B9 59 A7 2D 21
 89 D5 54 61 16 71 30 0D DB C0 71 68 38 63 C1 55
 30 7D B9 3C 52 37 97 F8 90 C5 FE 3F E1 67 26 3E
 00 A3 FD 06 3A FB 39 33 8E D0 5F B8 D5 FB 1D FB
 ED 62 BD C9 45 88 11 15 AE BE 7E 83 51 A3 07 C8
 22 AF 25 B0 44 C0 51 33 AE 4C 12 18 9B 05 B3 BE
 D5 20 80 BC 5D C5 A6 D7 47 A3 A7 B1 A1 5B 55 99
 C3 E9 8A 64 2C 2C 6E A1 A5 2F C9 6F C2 67 62 2A
 07 C1 BB 65 CB 1F CC 73 88 B8 5B 43 63 30 41 DD
 6A 14 87 E5 EC C8 C9 E6 EE 2A 68 69 B7 58 53 BA
 D7 DA FD 62 4A 13 BE 39 4A 0F 4B 80 47 3E 7D 36
 82 B5 92 D5 54 72 3E 84 A1 EB 2D 18 01 5D AD E1
 04 44 42 20 5C F3 53 3F 59 91 F4 10 7F E0 01 C9
 2A 6F AE 99 61 D8 6A D5 FD D9 13 51 40 71 7D 9B
 85 C4 D7 7D 1C B7 64 0A C7 D0 62 62 9D 7E 2A F8
 06 5E 44 1C 4B 56 BC 70 FE 10 3C 7F 13 96 7F 20
 F0 0B 2A F2 41 6D BD F2 36 C4 5B 92 77 59 48 24
 4F CA 85 10 9A 1E AF DD CB 30 FF 6E CB 27 FB BF
 DE 47 67 1C E8 55 38 CF 32 47 FE D4 7C D9 81 04
 B4 F1 55 5A EE 57 0F 42 78 3D 2C 84 45 85 40 DF
 42 3B F1 EA E5 97 46 02 1B 3B 1A 59 F1 08 F2 5B
 34 1B 81 B2 E8 E9 7D F8 FC F6 A9 26 41 80 FA 54
 41 3A CC E4 FA 91 62 6D 2C 80 95 09 1E D7 A5 47
 88 31 A8 3B 13 67 C4 B4 2B E2 57 18 74 38 94 C6
 7F 2D 32 F3 2A A9 13 74 43 02 65 A1 82 26 56 BF
 DC 5B 3A 03 35 8A CA 2C 36 DC D9 36 E4 B6 3C 31
 10 11 5E DF 44 9F D4 27 1A 7B CD 79 D2 96 0C 5B
 52 E2 A7 03 90 0B A9 B6 25 00 0E D2 2C EA FF 59
 62 3A D2 DE F6 B2 70 2B 2B 07 6B 0F F8 1A 9E FD
 BF 09 CB A0 14 96 B6 7D FE 3F 7A 7D C1 E6 35 E3
 05 FA D8 7B 54 A5 78 CE 6C E5 8D B0 D9 B7 C8 A8
 C0 A7 39 A9 06 C0 FB 3A 9D 16 D0 DC 29 C9 40 60
 B3 3A 2C 74 A1 60 72 7B 33 09 33 22 C7 62 B8 FA
 D1 90 B7 3C 6F AC 0E BD DA 52 99 13 3C FF B8 DC
 0C DE 2A 21 B5 E4 DA A9 50 BA DD F9 36 50 A2 B9
 6E 4D B4 9B 7F C8 95 EC 06 33 0E B4 CC 66 1A 2E
 51 FD 88 7C 0C 64 7B C7 10 10 32 E5 99 F5 29 30
 F1 0F 67 DC 09 CF F2 CD 2F 47 B8 EC 19 51 AC 2A
 2E 46 D6 3D AE 6B CD 25 2A BE 8A F6 DA D3 E5 50
 BE 5D 16 A7 0F A8 0C 1C 39 E0 D3 C0 3B 70 41 F9
 DA A3 84 00 62 AF 42 5A 27 F9 96 AC E0 E6 AF 69
 4E C2 23 80 20 D3 B3 5C 2E 9A F7 9E 75 1D 8D 3C
 A7 80 4C 91 65 30 0B 98 45 44 6C B4 D1 01 C1 C0
 3C 1B 90 41 74 2F F3 65 F5 B4 E3 7E F5 C1 F3 C5
 35 52 A4 89 D6 EC B4 2C 56 0D 23 9F E6 60 66 66
 3D FA 03 63 02 C3 80 27 46 CB D5 10 98 D7 DD A6
 30 85 EF 0E 24 D4 F8 BF 46 76 3F FC E3 12 5C D2
 CE 58 D2 63 82 8C 1A B4 D0 19 EF FB 4A 25 26 AF
 24 77 6B A3 7E 94 73 6F CC 5B DA 6B 33 96 8A 03
 3E AF EE B3 E9 EA 31 B3 3A 90 51 30 FE 5F 6B 29
 14 83 7B FE 30 50 C7 58 26 1F 7E 55 AD 9D BF 5B
 84 4E 02 6B 7E 6D 72 E7 5E D4 6E 11 9C EA 3C E1
 7C 0F 3A 27 EB D9 C2 76 5E 66 2A 6E 44 66 A3 73
 9A CF 7D C9 29 9F 1C E3 89 9F 4D 83 ED F1 11 0F
 E7 43 C0 BE 87 1B 48 86 E1 91 9A 3C 25 F8 CA C7
 9F 35 4A 56 70 6E 3C E2 4C AA 5E 8B BF 38 E0 9B
 72 9B C9 51 7D F3 BE E2 A9 D8 1F 73 81 E9 50 1C
 CD 31 DB 5E 81 8E 9A 66 C2 B1 49 DC 6C 6F A7 F8
 48 EB 19 E0 1B 10 7A BC 69 34 55 E7 E8 CF 55 35
 63 E4 44 41 F7 19 05 5F F8 64 5F 8C E2 A2 37 4C
 1C 61 C8 AA DD E3 D7 E8 72 05 A6 CF 97 CE 3B CC
 CA 72 5A D6 D7 80 AB 26 D5 F7 26 F4 39 E3 03 A1
 62 6E 19 C8 56 48 F9 7C CB C3 BE 15 1C 00 A2 29
 99 9A 44 36 B8 45 2B D5 4C 29 4D 68 58 25 9E 8C
 7D A3 E1 DB 5B A7 0A CD BD DF B7 1F 8B D0 C2 E9
 02 14 1B 13 42 5E 96 7C 4E 15 46 2B CF BD C4 4B
 41 AD EF E5 AD 0C F9 D1 DF FC E2 51 D2 6F D0 E1
 02 E9 28 59 0C AE E3 5C 17 72 4F 26 37 7F FE 79
 BC F8 83 F8 FD 08 B3 90 FC 62 4F E1 33 26 35 D8
 4F 5A DB 5F 1D 66 E6 A5 1E 9A DD 36 91 A2 37 AF
 AF 80 99 F8 94 F0 91 30 8C D5 7F E4 C9 07 40 DC
 E8 67 C6 35 97 AE CD 6D D0 9D 8A 6C F5 E8 90 70
 7C 89 AF FD 46 04 7D 32 77 55 A9 CF 07 ED 95 1D
 DF 1B F1 A0 FC D4 67 96 59 1C 16 67 82 39 B2 8D
 BE 8B 1D C3 BD B7 94 A7 7C 01 66 7E 6C 6F 98 69
 00 97 40 D5 10 43 B3 16 41 B6 48 8F 8B C3 80 D3
 37 84 15 0A 31 A1 1C A9 3B 06 B8 4A 2A 78 E3 DF
 6A B2 7B AF 90 2E C9 E2 DB C0 AC C5 28 FF DB D7
 E1 C1 E0 63 8F D4 17 35 75 B9 7B 18 B1 47 70 0F
 EE 70 58 49 F8 2C 88 E8 6D 48 83 36 E5 DC 7D 3B
 87 22 94 3A DB D8 E1 21 A5 B7 C9 CA 55 2C EC C7
 67 EF CD BB 1D 40 AA 03 23 A0 B5 AD 54 5D 33 AD
 CF 79 C0 68 A4 0B 4A 6A 69 DC E0 17 07 EF F2 05
 4B 75 36 FE F7 99 44 52 6E BF 3F 1E 14 F3 82 F4
 B1 6F 20 26 5A F0 1D 45 79 84 D8 D1 CD AD 77 34
 3C 7E 93 9A 26 F9 2C 6C 6A 4B E3 91 73 97 22 55
 8B 8D CD A2 0F DC BF C5 F6 60 E5 8D 19 74 DE EE
 D5 3F 16 B2 0E F2 26 1C 3F FD C4 A3 2C 1E C2 58
 7F 8B 30 54 42 FA D2 1F 46 19 49 8A AD EF AC A6
 72 27 CB 68 C6 93 C2 0F 80 21 25 F8 B4 79 AB 03
 2C C5 9E 06 8F C4 3D BC 5A 21 E1 4D 12 2E CA 62
 19 17 2E B9 9B CF 6A 16 8C EB B8 8C 29 20 BD 3D
 D1 E8 D3 01 01 8D 1D CC 8C D6 52 21 7D B5 16 44
 B3 47 8F 60 B6 8C 51 3F CA CF 1B CF 96 F9 E2 09
 3A BD F3 64 C2 24 35 FA B1 F6 B7 12 EC 38 81 75
 70 A2 D6 85 F8 F6 AD BF 1D 5A AA 83 C7 28 1C B2
 3F BC C7 39 AA 9E CA 71 4B 82 BA C5 9A 27 AC 5C
 BB 1C 4A C3 A6 65 46 5A FC 93 40 5C FB DD 9F 92
 3C 8D A5 EB CB BB 68 39 7C C8 7E 70 4B F3 5A A6
 A9 7E AC 54 33 1B 45 A1 9C AE 18 F8 D1 E9 1E 63
 4F 9B A8 3C 44 6F 61 36 1D 88 78 79 26 95 39 24
 DA 77 F2 07 C1 6B 6F 9C 41 F2 BE 45 0A 33 CD 5A
 F4 CC 62 D4 63 E4 11 DD 71 E7 E6 9B 07 7F E6 86
 9B E4 46 60 BB 0E 1C 64 C0 FE 52 BD 23 7F BC C0
 6E A7 1A 85 73 17 B8 8A BD 07 AC 79 8E 6F 93 75
 1F 7A 41 AD 23 EA DB B1 B5 44 05 AA 8D B9 DC 9B
 F7 C9 1A B1 83 FD B3 AE B3 53 A5 EF 65 EF 44 1B
 1F 66 D3 6C FB F4 ED EF BB 2C D0 71 79 FF 5C AE
 2E E2 17 75 97 F2 A3 08 B3 EB 3F 5E 60 47 4D 18
 A1 3F 81 97 3B 72 6D 11 57 9B E7 97 FA 8B 73 A3
 1A 64 70 F7 CA 6E 3B 00 16 A1 FF F8 5C D1 BA 82
 E1 68 40 DA D0 31 89 8D F0 26 B0 3E B6 BD 32 FA
 FC 0D DC EB 30 79 D7 31 D9 D9 6A 28 EC 88 D4 6E
 CE B0 1A E1 20 6C 0C C1 40 EB 8F DE E4 9F E9 C4
 87 16 9B 44 81 90 E5 A2 37 D5 2A 8E 87 30 F8 DE
 48 C7 B0 B0 86 82 C2 0C 1F FF 05 0D DF 1C 9C FE
 1C 98 CB 5C 4D FC AE 30 52 8F 30 3C 50 01 26 88
 AD E0 D3 70 9A 03 EC 45 80 CB 2D CF D5 60 63 94
 19 46 FA B9 C8 5E 7D 5E 93 83 89 7F BC 3F 85 A0
 13 32 61 A9 43 D0 C2 DA EB A7 38 C2 95 B7 58 BB
 67 0B 85 0D EB A3 8B 38 8C 33 AA 66 AB BB 64 91
 AA 08 2C 27 CE 6B 91 A1 3A 47 96 52 2F 32 07 ED
 47 DE 46 C2 99 38 E4 6F E0 6B B6 72 E4 3D C2 4B
 53 C7 3A C4 4C 51 D4 92 97 91 90 1E 43 7B 19 53
 C6 1F 38 B3 64 9C 00 70 AD DF 1A 87 73 29 E5 AB
 49 68 C5 FB 50 C0 F6 C9 E6 EB 13 57 3F FE 18 59
 2C 78 C3 48 00 DE 39 A2 1D 81 B7 F2 9A 4D D3 5E
 9B 4A 6E B0 F1 EF 18 08 D0 33 73 31 46 48 EC 59
 DC A2 63 D7 43 FF 09 90 9A 49 40 ED 2D AD 92 1A
 25 A6 41 47 28 95 0D 60 BD B5 9C BE 6C EF 23 23
 56 F7 80 8A A9 B7 A6 97 A9 17 76 CA 5E D9 E2 0E
 93 1F DF 00 62 2F 0D 07 82 E2 68 B6 3D DE D9 10
 72 86 ED 4A F7 2D A5 42 5D 50 BD 3B 4C 07 EE 65
 1B 15 E2 EE 90 13 3A A7 EC 45 BB 03 E6 7A C1 75
 7C CF 44 F2 26 14 38 12 40 51 FF 46 E1 32 47 12
 70 5D 5A C1 58 64 F5 A7 99 B8 19 52 C6 9F AB 84
 2E 2D 90 C5 42 E1 DB 9B 76 47 E6 73 8D 3A C4 A8
 A5 5C 5A 2E 1D F1 E0 53 38 07 88 7A 93 AE 44 9D
 18 9D C6 B9 62 C9 2B DB 9A A0 20 59 86 3E 58 1E
 1C 7F 0F F8 92 09 9E 8C EA 0E A5 82 3A A7 16 AB
 D1 18 20 1A 63 DA F3 0E 71 A4 AF FD C1 BF 3B 7F
 0B 56 99 2A DD D0 66 08 66 2D 67 02 7D 19 C7 73
 AD 0E C4 F3 33 4A 43 8B DA 97 4C 0B 6B 8B B1 2A
 EA 9B AE 3E 38 BE 48 29 09 D8 8C CA 27 9D AE 9F
 15 7D D7 23 35 AD 95 7E E0 5A 8D BB 53 E5 6A F3
 3C 12 CB 52 6B A6 8C B7 2C 1A 7B FA AA 6B 44 7A
 2A 99 62 50 16 E7 DB A4 8A 93 B1 1A 01 59 2F F9
 4F 80 8B 1A E9 88 8A AD F1 F2 9C 2B 03 FD B1 4B
 F1 C8 DC 3C D3 17 90 E7 DA AA EF F0 41 28 ED AF
 BB ED 2F B5 46 BB AF F8 49 47 2F D7 3D E3 02 95
 0A B6 BA B4 A1 EB CC A3
* End 622072033 3224819177