* LTspice Encrypted File
* 
* This encrypted file has been supplied by a 3rd
* party vendor that does not wish to publicize
* the technology used to implement this library.
* 
* Permission is granted to use this file for
* simulations but not to reverse engineer its
* contents.
* 
* Begin:
 7B 62 4E D2 07 60 76 50 D0 90 17 26 E9 BA 7B E1
 FE 33 D5 C8 5D B9 75 CA 0E AE DF E7 3D CE 8F E0
 7F 21 AE D6 C4 59 20 65 B6 84 E0 B8 AD 55 77 3B
 38 38 51 49 DB D9 0C F1 46 E9 29 9B E9 A8 9E E0
 14 63 50 D3 86 B3 8A 70 5C 8F E4 94 61 15 02 87
 8D EC 83 5A C8 E5 4F D0 84 0F 08 EA 72 03 9F E8
 9B 3C 58 21 29 4A 02 07 C5 A9 B9 6A A7 E4 9C 2D
 3B B3 BF 5A 31 CA 89 8F 48 D5 D9 A9 31 0A 1C D6
 DD FD 07 AD 3B 05 41 56 72 FF 12 14 59 43 21 65
 57 89 FA 91 74 03 38 49 BE FB E0 DC B7 14 87 9A
 8E F1 3F FE 55 28 38 96 68 70 52 53 40 E4 9F DB
 D2 F7 E6 F5 E3 90 5B 6B C8 1D 1D 6A 24 D6 81 1C
 E9 AB 23 A9 17 B2 1C 99 14 88 F0 C0 FC 54 75 E6
 87 6E D5 F0 0D 24 77 46 C6 5F 98 EE B1 7F 4A 46
 DF 82 67 3D F6 B7 1E 2A 3F 67 8D 57 D2 7F 15 2E
 B0 4B 1B B8 F3 5C 08 E0 56 19 0D 59 A2 B2 AF 51
 D3 21 1E 90 1C 00 67 4B C9 76 B6 7A BE 8E 2B B1
 4E 10 37 EA 58 87 05 11 54 58 24 EA 59 6B E7 1E
 1C CE 46 C1 7D C7 7F 1A 30 0E 64 E3 24 D7 40 49
 4C 57 89 E9 23 B4 91 0D 70 FB 04 D8 EB C1 6D 9D
 D3 EA 78 51 15 7C 08 2A 1A 8E 31 44 C8 0B 4C 35
 03 4C 6B DA FC AF 20 3D 04 2F B7 2F 90 7F EB 97
 62 01 74 3E 76 22 79 40 E1 52 BB FA 8A BF 72 28
 09 41 50 9B D9 05 F5 A5 96 19 AA 33 42 57 88 32
 02 27 9C D5 D8 FB EC 01 D4 DF E7 71 8C 28 39 7B
 31 5F D4 BD 48 FE 34 54 71 2C B5 0D CB B2 2C 3E
 43 44 44 83 37 21 00 A9 24 46 FB D5 EF 09 31 E1
 7C C6 64 5B 84 4C DD 69 AC 5C 02 B2 19 33 47 FC
 1F 98 2D 5B E7 F8 B3 68 6B 5C 94 A0 0B 8F 77 1B
 43 26 BE A4 DE 46 47 6F 12 BF C6 EA 88 E6 9D 02
 19 C3 FA 3D 39 22 0A 1D B7 72 D9 E0 42 40 E7 8F
 4B 82 E5 0B 96 24 9F AD EA 7A D3 EF F1 AF 69 C4
 F8 43 DF 58 DF 15 91 B6 B0 E3 75 19 2A D6 84 34
 FE 38 31 E4 73 90 0F EA 0E FA 50 5F 80 64 3D 5C
 BD AA E3 27 97 1D DC 34 0C F0 1F 88 99 0A D5 9E
 8C 46 F4 F9 31 97 B2 B6 6C F9 A0 BA 70 1F EF 39
 E4 A8 53 E7 9D B1 0E 97 57 33 8B 6F F5 98 43 20
 0E 9B 46 7E C5 5F 28 D8 0B 4B D1 79 BA 37 D9 6A
 82 DC CC 43 6B FB 09 5B 83 98 7E A5 45 80 61 F7
 86 71 06 9A 0B A3 B6 1F B7 5F EB 87 A9 CE 83 1E
 0C A1 E3 9C 6E 9C B8 32 CF 41 BA 17 F6 43 67 D4
 D4 C5 79 B1 5F 6A 11 6D E7 7A F1 05 44 0E 50 B4
 2E 79 E6 5E C1 2F 3A 9F 99 1F 69 3E C5 21 7A A5
 C7 10 BC F2 8E 14 0A B1 42 F5 3C 84 2C F3 2F 06
 C1 86 05 FF 88 AA C6 52 69 6B 7C 38 DC 59 59 57
 53 0F A0 35 5D E9 2E 22 75 55 CC B4 74 68 A9 D1
 D9 B7 FE D1 23 D9 C1 C7 9F F8 76 90 5D FC B3 25
 15 73 40 02 14 FD 37 03 D2 A2 B0 86 8D FF 15 9C
 00 A7 45 FC 30 C0 13 66 3A 23 46 1C AB 15 47 83
 5B 94 DB 70 D7 01 66 B3 64 6F 8B 26 66 65 1B 02
 15 3B 5D EF 93 56 BF 85 97 23 A8 A6 E5 E7 4A C6
 3F 04 FB 48 3A BB 6D D8 16 E8 02 9A E7 DB 22 42
 FF 24 84 C2 75 BD 6B 65 7D 50 4B 7A 0F D7 F4 8C
 D8 C3 55 BD F6 6B D7 6C 86 11 AB 95 B4 98 03 4D
 8A 1C 21 F8 B1 26 38 7D 12 70 C2 87 2F D8 33 A1
 73 74 93 3E 59 AA 39 93 95 52 9A F9 7B 76 49 03
 82 AB 6A 39 8C 40 00 09 AB EE 82 2E 7E 70 E9 9C
 78 B9 C7 62 9C CA 8C AA 19 9B 01 05 92 FE B0 36
 3E D7 3B 0C 05 F4 8D A6 93 01 2E 37 C7 C6 07 1A
 F8 51 24 16 70 FE 47 F3 27 B4 8D D7 1C A5 32 DE
 62 57 75 4A 44 10 01 C4 70 68 69 4A 1A 3B 9E 5A
 8D 7E C7 79 E1 11 F4 D8 8C E8 66 ED 00 F8 B5 A5
 D9 A4 34 A6 95 FB 1B DA F9 01 EB 6C A6 48 71 57
 DC 4A 3D 61 EE E9 6F 8F 7B EB D4 08 0D 3C 4A 0C
 6C 7B BC 7A B5 D2 18 41 E7 C9 65 95 49 40 B6 D8
 93 7A F8 F8 83 73 4A 63 D8 A9 74 61 8A 33 E6 15
 07 BF BA 75 59 7D 65 30 3F 34 A1 73 C5 D3 69 CA
 70 8F 41 61 D5 A3 D5 B3 A2 9B 23 CB 74 B6 AA 76
 05 6F 50 BF 7C 1E 7F DB 14 7B EA B6 68 E4 86 FC
 84 62 D9 4A 6C 0B BE 95 D5 4C F1 53 D7 D9 55 75
 4C A3 C9 C6 7A DF E5 24 CF 3C A7 0D 3D 83 02 31
 5A 7A 9B 66 43 1B 27 DA BB 30 2C 03 4C 5B F3 75
 80 4A E4 51 E3 ED 28 A1 6A 54 EE CB 7E 49 B2 3C
 CC D2 58 6C 31 BE 4D 7A 3F C4 83 09 34 7E 7A CC
 4A 69 28 37 67 6A 43 31 15 96 15 A1 0A 09 F4 DF
 D8 98 CA C4 EC AE 35 88 33 18 61 FE 29 E9 E8 21
 0E 14 2F 37 6A AB A0 47 F0 2A 51 AE FA BC 9F 72
 18 DB DD 80 72 36 B2 23 8C 93 2C 2A 48 CA 6E 08
 C5 BB 29 47 D4 6C 3D 55 A9 DB C8 3B B4 69 24 DF
 9A 12 BC CC 19 9C 70 20 0C 77 9C BA 3B 0C 5D D0
 5D 05 A2 D9 F2 DA C8 3B F5 E0 DE 24 CC 7D E8 C3
 65 3C 2C B8 7D D1 81 DF AC AC 1B 9B 86 C0 E7 D8
 66 5C 65 09 39 7A 49 FF 5D 68 04 B0 86 2A 61 FF
 26 A6 C7 77 61 B5 5F 4D 5A 2C C5 D0 FF 25 61 FA
 DC A0 A1 2D F7 95 7E B4 FF 00 0C F9 50 E9 EF 83
 B3 D2 DB 2F E5 E0 97 E2 C9 8D 31 6A 7C 21 F4 50
 B3 3C D7 DF 81 F6 B2 3F 4B BD 04 41 09 79 6B 75
 F6 F6 CD 3E 99 C7 C9 EE B0 0F D9 35 E5 DF 6A 61
 1E 94 83 BC F5 75 80 0F 21 BC 95 A3 C0 A5 7A CD
 D4 A8 5C 87 A0 04 A4 AC E3 A0 7D 66 DE B0 44 5C
 AD 0D 01 01 A9 C2 2B 1C 93 ED 34 C9 F3 5E 42 A7
 C9 29 EA 9B BF 63 3B CD 13 21 38 97 D0 73 6F 7C
 58 05 38 50 A9 6F 06 5A 60 EC 00 57 12 CC 12 00
 44 BB 92 0D 45 2C 6A 29 C2 DE 50 C7 B3 F1 82 A4
 67 98 7E F9 D8 FA 44 BA 2F 7D 0B 33 EE 1D BC 88
 52 2B C6 41 70 64 E4 E8 81 5D B8 06 C4 0C 09 64
 17 59 CA 08 88 57 61 64 60 5C 2E 5A 88 06 40 2B
 47 56 A7 DC 15 81 63 40 C9 D9 65 B2 C7 84 19 3F
 81 10 D1 49 A2 03 75 CD FA 32 74 29 D1 4C AD 62
 5F 8B F8 F4 C6 3E 62 CF A3 CF 18 B9 6B 50 6D 78
 EE 02 74 C1 BA BE 92 AE 62 3E 8B 55 B4 3E 79 8D
 E4 61 21 F4 E3 D7 B1 39 8B 30 03 E6 FD 3D BD AB
 6C F7 3C 0F 19 F0 B3 43 0B 5D 1D E5 7C 74 9A 2A
 F4 CF D2 38 AE 54 07 35 B0 A2 DC DA 8B 60 DE C9
 67 40 3D F6 F1 95 8A 16 D4 B0 2D C0 5E 83 24 BD
 11 CB 46 DF B4 06 36 C5 43 6B 28 90 91 B5 09 74
 21 40 19 D4 DB E2 22 3D D1 88 A2 E4 5F BD 0E C5
 19 E9 31 54 87 7B F9 08 B9 11 A2 F5 FF F2 54 EE
 A4 56 FF 3F C7 4E FC 43 FF CD 45 5A DB 94 34 4F
 19 32 A2 F8 C1 A2 40 5F 8A 1B 0B 93 4A E5 07 74
 00 94 10 8A A8 06 5D 74 1A 0E DA BD 93 B5 A0 83
 61 48 FA 64 04 8E EE 6E A1 1A C7 3D 66 16 62 93
 F7 D3 15 98 80 C6 C1 E7 2F 24 98 85 55 E3 7C C8
 8B 50 5B 77 E9 1D 88 9F DA 6D 81 4E 9E 31 28 A6
 4F 1C 32 66 C4 CA 35 6E 6D CB 6C F1 AC 36 B9 0E
 DD 88 66 5C 34 15 14 37 C4 4B C5 11 FC FC C8 EC
 DB 4A E6 19 51 26 E8 5F F7 2A 01 8F 0E BC 85 B4
 7B A6 70 C7 C8 5E 73 EA 75 B7 50 CE D0 72 C2 FC
 75 79 C3 33 53 FD C4 9B 47 79 70 C5 D1 72 A3 D5
 6F D8 CF E8 A9 1D 06 6E B4 C5 C8 08 1C AA D5 DF
 02 01 79 46 AC 2A 21 37 07 A6 92 0C 3B 6D BB DC
 9F 41 1A 7C 0D 09 62 CA 1F 91 38 88 06 5D B8 1D
 AF 04 7B 26 BB FA 0C B3 B0 BD 92 45 FD DB 4F 0E
 D3 8D DA EA 2E 25 0E 0C 05 25 44 EE 4F C3 09 85
 97 5C 7D E6 2E 6E C6 5F 15 0E 71 2F CA 96 4B A0
 80 96 E4 E6 9A 56 A7 C9 C7 6D 40 28 F2 5F 21 75
 B7 21 43 F4 8F B7 CF 02 9E A5 4D 83 63 43 C0 A3
 F8 AC DF E9 3C 93 E0 C0 8B 45 CF C9 E2 7C 49 C0
 38 1C A8 C5 C9 1B BC 84 B1 F9 9E BE EC FB CF 3C
 FD 6F C0 82 88 84 2D 34 D0 34 62 D4 82 FA 61 A2
 6A F1 E5 7B 3C C5 0D 8E 84 1B FD BE 9A 70 8A D7
 2E 36 52 CB B4 A4 B4 E4 2C EB 57 5C DC 63 F1 77
 B2 EF B8 C9 12 E9 2B A1 95 A7 AD 65 16 D9 FD 9B
 10 1B AA 60 E9 C3 66 2F D4 AD 8F 54 D1 6A BF AD
 74 24 CD F0 C9 FB 63 90 A1 0A A1 5B C8 84 22 D5
 34 EE E2 F9 60 0C D2 BF 74 37 A2 36 CE 75 EA A2
 2B B1 AF 1B 60 7A 4B 42 80 62 6C 8C DF B8 09 A0
 B9 EF EC 27 B8 92 67 C8 00 A7 21 E4 AB ED DB F1
 9D 4F 03 92 3A BA CF 74 9B 41 9F 47 C5 2F 6B 66
 13 F9 B4 60 D6 69 88 33 0B 47 C7 14 0D A8 DD A9
 79 76 13 96 53 F0 E2 D1 8E 70 68 28 97 04 98 F1
 26 C6 12 75 A3 14 0F 47 F7 FA 13 9A E4 E5 5E 9A
 2C A7 1A AF 5C 8E 83 1A 22 0E 18 D5 A1 76 38 CB
 A6 A8 E1 5F E7 54 72 3F DC 19 CD A8 B5 A8 0A DA
 FF 46 85 29 9B E3 3C B3 88 B1 C5 8A 61 62 CB 50
 27 87 AA 21 17 05 A8 73 0C 5A AD C2 7D 55 3F EA
 67 EB 6D 5C 45 F9 53 FB 07 7D E7 B3 DD 44 ED 4C
 32 60 0B 15 9A 0F 3A 29 CF 63 53 EA 88 14 8F 2A
 39 E6 76 12 01 97 D8 FB DE BB 69 C6 99 48 39 04
 CB 83 2E 04 96 38 40 5D 66 61 20 B1 D1 F3 10 75
 CF C4 5C A6 F4 A5 B7 42 54 00 E6 78 5D F0 13 79
 F2 45 08 CB 47 F9 C7 CD 45 A1 BC 48 0D 74 04 90
 D2 CA 4E B8 B3 15 22 CB 75 49 B5 54 2F A0 C8 E8
 80 DF DF 8C F0 DF BD 80 C0 E8 6C 85 79 F8 6B 21
 C6 BE 72 09 EA 79 28 C4 2A BC CD 08 06 A8 56 74
 84 77 9A 8E D0 64 32 72 11 22 D2 9B 1A A0 9E C6
 2C 6B E8 9E BD DF 9E 41 9B C4 DA 56 23 18 F2 6A
 7C B0 8A 86 C0 72 6D 6B 65 84 B2 CE 74 36 A5 A2
 D1 59 4B 03 7B 30 A8 9D 90 73 01 7E 65 26 D8 4E
 E1 27 9C 1C ED B0 DA A5 4B 14 FC B1 9F 71 03 B1
 E0 B0 10 34 28 33 E7 81 D2 FA 67 F6 6F 25 EA B9
 8C 69 FF F5 86 72 9B 9D 30 57 A0 26 02 B9 C5 42
 69 F2 81 85 C3 0F 66 D1 E4 74 76 29 5B 2D F6 0C
 7B C8 BB 2A ED 38 9B F6 63 A4 09 8C 17 96 8F A6
 EF B0 F2 B1 61 B8 C1 85 C4 9D F5 D7 49 AC 36 B5
 23 43 E9 32 68 35 E5 1D FE D9 34 9D 41 5C C1 95
 94 09 1D 82 32 4C AF AD 26 28 EC 20 D5 BF 24 28
 DB 92 95 B1 B4 8E 21 77 25 EF 26 83 D7 1F 66 45
 08 90 7B 66 92 B5 EF 30 79 7F 58 3D 50 94 8D A5
 ED 16 69 97 4E 94 AA 9A 13 04 85 54 93 5E AD BD
 0F B2 C6 2A E2 47 FF 83 1D ED 18 FD 2F BA CC D3
 15 BA 3B D7 D7 16 E0 69 40 25 F8 86 01 D5 FD 3D
 C7 B2 74 C7 F3 B6 09 CD 16 66 3B B7 01 E1 C4 58
 5F 6C 02 2F 88 BE 7E 7A CF 41 C9 74 6A D6 1A 43
 49 8B 81 23 07 9D 22 0D A6 FE B2 B1 BC 8C AF 9F
 F7 D8 B5 9D 2A C6 21 F2 09 F2 4C 4D 62 CE 04 2A
 8D 44 9E C3 54 04 29 C2 FF 9C F9 06 D3 14 A7 E7
 B2 B3 B6 12 DE 15 40 B6 41 00 1C 07 C6 DB 64 D6
 26 4D F6 73 EC 5F E3 9F 3A 0C 34 85 A5 E9 EC 36
 98 4B 8C BB BE B7 3D 84 13 0B 4A 96 6B E4 B2 0D
 DF DD CA 82 AC B2 ED A6 B7 9E 15 69 AB 78 01 6B
 79 35 CC E6 DE 79 50 D2 0A F1 56 B3 36 DB A8 95
 06 8A C1 30 C8 09 AA D6 FC 3B 50 C3 55 A1 E3 7F
 D9 7D B3 65 FB E1 88 82 AF 1B 72 54 81 99 67 DB
 78 DA 7B 2F 2E 20 29 97 1D 90 E7 0B 8E F2 55 88
 81 E2 C9 3C D2 E9 9A 64 98 CD FB 6D 97 7D 6E EF
 79 8C 3F 27 E9 14 D5 4A EE 76 C1 48 12 23 E4 2A
 DB 09 A5 77 67 6B 6F 02 8F 96 67 18 F9 27 EB 3A
 A7 B8 30 4E FD B3 B3 ED 7B 03 84 D4 23 A8 E5 EC
 40 9C FA CF FE 3D 51 07 CD 5E F4 59 98 4D 79 D8
 74 F7 5D 80 C7 42 4C 33 CB E2 55 77 F0 2D EE 59
 4F 74 25 79 89 46 9E E3 C2 AA 64 C4 07 A4 2F 30
 0F E2 C5 5B 7F C3 60 5E E9 4D D7 8E 06 4B 1C 20
 75 2A 5D E3 4D 93 05 45 1A 0D 89 6A 39 74 3F F4
 53 00 8D FE D2 ED 4E 05 9B 9E 06 87 22 14 9E 1F
 6E 71 9B E1 66 54 1A B2 D6 13 59 FD E0 5A F9 8D
 72 BE F2 9C C1 13 BD BC A1 14 1F 31 73 63 67 CE
 C7 B2 3B 03 C3 EA 8F 88 FB 60 73 6F F1 50 1A 19
 F2 E4 3C 93 2D 0D D0 78 A5 D4 BC 11 6B C7 D3 27
 9E 0D 5E 54 36 26 3C 62 05 48 D9 C2 AB 7D 48 DD
 88 20 AB 86 52 CA 1A 33 07 99 0E 25 D0 8D 17 64
 6D 20 C2 94 CE 0A 3D 66 31 BB 75 B1 D5 1E 99 1A
 D8 1B 8A 21 DE DD E7 DB D1 A4 DA 47 F1 B1 57 67
 0C BC 30 EB 83 77 C4 7A 37 93 D7 9B A3 19 8C FF
 50 9D 62 FE FA B6 D4 3F 1B 50 2C CA 39 F9 2C 64
 9D 11 A1 85 5E 07 09 6C B7 34 75 FF 6B 68 9D 68
 56 81 2D 47 79 A8 0A 1C AC FA 60 67 6A EF 22 4D
 36 56 63 14 C9 96 D9 03 98 9D 8A 5F 9A 55 B0 0C
 F7 99 E9 05 6A 51 D4 CF 1C BB FD 9B F1 33 53 8F
 24 C4 C3 D3 A8 1A EA 34 82 9E 8D 61 21 A0 C6 55
 0E 16 A8 8A A3 FB CC 1D CE F6 87 37 9F B3 E2 8C
 9B CC 35 3D 5E 1B A9 FC 1E 4C 2A 81 F9 B9 A5 55
 76 2A EE 5C D9 69 53 6E C3 3B 5D 93 0A FC C1 E9
 49 CA 38 07 C4 0F EA 7D 16 63 35 1F C2 E2 DE 8C
 55 B2 73 B8 3F 97 0F 0D 53 18 6E 6D 68 F4 10 8F
 4B A6 5B E2 6A C7 20 07 6B D5 A6 E7 46 0E 48 D4
 09 D6 EE 74 B1 EF AA D4 28 1C 5F D6 B5 A6 72 60
 1B 39 5D E9 B7 1F 0E F5 82 8A 26 0C 5B 6E 47 B0
 D7 EC C1 84 91 2A E2 CD 82 13 B0 C6 8A F5 33 C0
 17 F9 90 A0 C6 C8 E0 26 5E 89 EF AF CE E8 A1 8C
 86 9D E9 52 16 99 CF 81 E4 3D FD B2 B0 04 12 23
 7F 2E EF A4 21 90 38 B0 27 64 F2 94 E3 AD FF DF
 36 C6 B3 B3 C4 AE DF C9 A6 A5 AF 03 0E 38 E3 53
 81 01 D0 AE 55 04 43 96 BB 78 93 B1 1D 1C 2B 40
 63 4A 16 29 EE E4 71 4C D3 9A 4D CB C9 22 6E 77
 27 5C 91 62 71 6E 10 B6 4C AA EC 89 ED 6F 37 32
 3F CD 08 36 75 AD E3 CD 9A 72 5D 4F F0 4B B1 50
 A2 4A 1A C6 35 34 F2 C7 FE F3 18 F6 40 BC 35 BE
 7A FA 68 F8 A0 ED B2 13 8C 35 39 91 55 B8 50 B9
 D4 A7 21 60 3A F7 BA A0 D1 3D 9F E8 AD F4 B4 2F
 AA 23 B6 2B 49 D2 AF C0 A4 4B E7 91 BD 36 1E 8B
 7F 50 DC 0C 6D 23 05 91 69 50 95 31 FE FB C3 FF
 89 FA D4 21 62 88 8A 35 D6 CE 7F 09 82 27 98 91
 DB D4 CD BE 52 5E 4B A1 0A 02 6E B6 C9 B5 E8 A3
 80 DC D6 1C 9A 9E 76 4E B5 69 51 85 39 BA 8F 15
 36 9A 4B E5 4A 14 49 33 D4 34 CE 06 3C 58 E7 86
 09 57 C4 FD 33 14 90 15 63 0C FA 56 65 DE 86 07
 42 70 5E 6D 06 83 38 D4 B6 25 80 F3 34 F4 5A AC
 28 DC 3D 84 3C F9 3A 26 54 93 FC 88 E2 C2 25 85
 B9 7A C2 8F 9C DD CF 6B 0F 16 90 12 5F 4D E9 06
 83 06 AC 28 91 92 16 65 69 B5 65 3A 60 54 E9 78
 58 7E 7F 78 BB 8C C3 03 6E FC 3E 6D 18 5B 3D 2D
 8E 68 7F 4E 84 FA 92 28 8B AE 31 53 10 4A 8A 9E
 B5 42 53 B1 D7 DB 19 5E E1 7D 88 BE D6 3C 07 18
 70 5C 0F B3 87 AB BB BE 8F DF 8E AE 02 FD 64 97
 41 EC 71 11 C0 E0 08 B9 B1 BA 37 3B 79 69 FE 97
 61 25 2D AC 55 D1 2F B5 14 F5 FE 09 ED 55 AA E3
 23 C7 F5 74 E4 73 FB 6A A1 E0 A2 CB 00 B8 EF 78
 05 9C 81 56 DE 20 F8 DB 88 65 3B 6D 72 67 FB 8C
 90 B3 F7 CE 64 95 CA B6 A5 61 DE D9 58 B0 3D 77
 B4 03 6B CA 1B 84 6E 36 16 95 2B 7F E1 7E EE F1
 73 3E B0 AF 54 D9 E3 AC 78 6F CA 6A F7 91 92 9D
 F6 C3 93 04 04 4C 75 63 C9 06 CC 6A 04 DB 67 71
 9B 38 D6 E7 E8 6E 72 B0 BF 14 6A 25 F6 2F 58 A8
 C9 88 B8 6D 29 D9 7A A3 DE EE 39 36 D4 13 4D 0A
 6F E6 B1 56 F1 E2 9E FF 55 15 37 16 FF F4 33 B3
 FD 42 8F FD 6B 95 97 68 06 69 E9 A8 6A C8 FD 2B
 30 50 70 9B 1B F2 2B D2 07 40 61 44 AE 0C E5 6D
 C9 F8 CA 5A 3B 5F E5 A1 AF EF 9F D9 F3 95 A3 65
 ED 52 BD 18 0A 54 33 84 F9 C3 70 EB 72 B7 23 C9
 F9 5C B8 E7 61 B9 07 01 71 01 86 E2 FD 5C AF 05
 4B BC AB BD 79 13 15 8A 01 2E 13 35 60 B9 69 E4
 8F 84 DB 06 D2 55 E7 42 4E 3C 54 3E 24 88 E1 FD
 50 C0 7A CD F0 17 B2 9B 1A 25 DD FE 97 8F E2 2E
 4C 4C F5 EE 76 AB 35 90 3F C1 8E 8C 01 EA FC B4
 AE 60 D9 62 28 E8 15 87 95 64 5E D1 AF B4 B6 1C
 7A C2 A9 BF 0C DC 96 28 87 E8 EC 48 B7 4F B8 62
 58 C3 AC B0 39 3A F8 F1 DB 22 98 0E F3 19 22 D3
 A8 E4 CA D1 44 6E CB 1F 59 42 E3 CB 34 30 7F 8A
 D7 12 21 47 05 8A 4E 91 60 E2 A3 BF 72 EF E7 0D
 71 85 FD 56 F6 40 D1 A5 08 BE F4 3D 70 2E 38 B9
 C3 23 F7 7E 89 97 7E A2 11 7E AB DC C6 EC 0D 91
 58 DB B4 93 3A 79 C6 E7 28 99 76 30 1F 77 58 00
 27 3E B5 5D 97 06 78 30 36 62 7E 97 0B F0 AF 7B
 A5 D8 31 C6 A5 D2 B5 F4 FF 51 91 10 5C 98 C5 6F
 28 80 A1 D3 37 D4 14 2D 5E D9 05 5F A0 30 92 5C
 1B A4 0F BC 0A 93 43 8C 21 F9 0F 4B 38 70 F9 1E
 D1 9F F8 44 E2 1C 0D 10 42 EB B5 26 C8 9B FF E0
 B5 1F 92 4E E3 55 A3 FC 8B BC 23 F3 9C E5 63 81
 35 44 EA 00 BA 56 34 0B D7 9B 78 DF 7C 12 F0 5E
 55 D1 1E 70 DC 0E 44 CE 45 81 62 06 34 7D 0A DD
 35 B5 52 06 0A E2 DC 15 49 05 33 FD 51 A3 70 F3
 82 6B 24 E2 B2 7D 80 8F FD CA 2E 48 5D 0F 81 BF
 19 F8 04 B1 7F A5 21 BE A4 71 FE 27 15 54 27 9E
 64 62 54 02 BC B3 4E 95 61 9E 68 54 15 7E 3C C4
 37 C4 34 D4 C0 74 8E A4 10 DC DA 4D 7C EE E6 1F
 7E E2 3F E7 26 AA 44 CB D4 4D 11 43 10 AF F0 38
 7A 0A C4 AA 99 36 84 0A 88 86 E0 DA 9F E1 B9 BF
 EA 5A B6 25 9F 1F 27 17 4B BF 2B 8F 7B E3 07 9B
 EE D8 79 97 09 D2 69 F1 C8 E2 04 86 A6 9B 5A B2
 E5 E8 EF 37 A5 F8 9B 62 58 DA A5 2E 1A 86 F6 D4
 06 0C 96 34 42 B1 48 A3 D8 AC 4F 23 10 16 50 1D
 0E F1 82 14 F4 FF B9 BC 7A DF 40 16 D0 B8 83 2E
 64 DF 48 99 2D 7D E5 1E E8 21 95 09 44 82 95 AF
 4A A7 EB 7C 69 2D 80 E0 CF 76 A6 91 75 07 41 7F
 29 2E 2B 1F BA F0 C0 59 14 01 72 DF D4 62 C9 81
 23 71 4E 7D 5A 2D 60 5B 88 70 6D 9F 58 39 C2 0D
 12 C3 AB CD 3A 78 56 13 6E B3 D2 CE 67 E5 07 AD
 E9 87 CD 52 EA 98 B6 C7 66 E1 F5 0C 2F 8E 76 6A
 13 06 06 A2 C4 51 B4 6A 33 A9 2A 52 AE E7 66 38
 83 33 EA 84 98 FD 67 EA 98 13 6A 8F 7F DC 83 A9
 92 77 EB 8E 77 A5 04 7B EE 4E EE B0 53 C7 72 BC
 41 48 95 88 DC B1 06 72 48 F1 35 AC 4F 69 ED A6
 7A 15 B4 99 C7 FB AA 87 8D B4 C9 6A F7 DF E6 B6
 FE 0F C4 EF E7 FF C7 52 87 63 15 F8 2A D7 32 A0
 C4 CA 6A D5 6B 38 7A 30 57 B9 0A B8 C5 B2 D4 24
 E1 E4 91 06 D3 A5 53 48 42 FB 9B 2B 02 33 54 AC
 17 21 A7 59 84 F4 01 A3 E4 46 8B 46 1B B8 96 AE
 28 99 D2 E3 86 D1 7D 00 5D CD AB 99 D3 2F DB 05
 D3 8B F8 53 B9 A9 79 FD 88 49 7F 2B 24 11 56 1B
 21 BD F1 82 8B 62 D3 70 2D 56 52 71 09 FB 50 19
 FB 4A E5 77 43 7B 98 CE F0 C1 B0 D8 8F 7E 22 1D
 0E 5E C6 1A EC 5F 92 50 7E 2F E0 C2 75 3A BF 97
 63 9E A3 B0 D5 C5 A8 8F 5C 6B 07 74 90 17 38 C8
 5B 86 48 00 30 7E D4 61 79 69 1A 86 F6 65 32 0A
 1B 2D C4 33 3A 9D B3 FB 08 55 BB D6 93 92 8A 64
 A5 65 DC 3A 7C EC 88 B4 1A E1 F7 C6 13 AD 53 D2
 52 6E 8F F7 AD B6 EF B2 0E B1 0F 86 16 33 9A 19
 FC C3 13 BE 96 65 F1 03 76 24 D2 7A 19 8C 6B AB
 10 52 6B 5D 65 76 67 93 96 6E 68 71 A3 D2 3E 7D
 A8 71 86 25 91 22 C7 CA F4 2C 51 C0 A4 BF 99 83
 79 AD 52 A4 41 CD E4 6D 4B 2A 9C 6D E4 E4 40 EA
 CC 87 2F 76 48 CC D4 A5 A0 51 31 32 E2 DE 2E 00
 93 7F 3E 48 EB C6 1E F8 35 AF 85 E6 EF D5 63 75
 6C 46 41 05 5D 36 88 1F 58 F0 1E D6 24 9A 44 0D
 40 CB 20 EE A5 95 C6 D0 6E 3D F6 A2 D6 D2 B7 F2
 83 EB AC 80 50 32 57 40 A9 9C 18 94 8D 05 7F 40
 38 0B 38 BD 2B EE 61 A3 1C F8 5D 9F EA 46 90 FD
 36 AB 84 11 61 CF 9B DE 03 6D 3F 75 05 20 8C 37
 93 44 7A 4E 8F DD 29 79 72 9E E4 65 63 45 38 E4
 C5 6F 59 F3 F6 AD 56 BA 64 CD E2 CA 54 0B AA 7F
 8B DC 03 06 8B CA 92 39 D3 40 5C 81 AE 7C 11 77
 07 17 D8 C4 E4 D2 96 F5 01 21 F7 C0 87 E9 85 BC
 FE CD 4C 74 86 E0 15 07 49 71 90 EA E5 16 79 2A
 37 04 EC D5 A4 40 BC 02 1D 0F 16 63 81 9B 15 0C
 FE C8 C4 C3 71 37 15 A8 BC FC 8A 9C 5C 5A D4 86
 9F F8 2A 0C A6 FB 68 AC 5F 4D 0C 88 19 24 87 22
 60 17 41 1B 1B 6E F0 35 A7 23 B5 A1 82 C8 D1 22
 E3 D5 D6 2F 84 F3 46 E2 97 A3 E1 6B DC 57 F1 3F
 1C 6B B1 17 B5 21 DE 6E EB F1 C4 7B 8E 06 7C DB
 BC B3 F9 2C 82 BA CA 70 08 57 B5 57 6B 28 0F 0C
 17 77 91 5A F8 76 69 95 E0 6F B7 F7 27 88 6A FE
 5A 1F E3 58 CF A7 E1 52 46 FB E3 8D 5B 31 D6 21
 20 E9 24 C4 7A AC BD F0 0E DB B3 88 3A 50 9A BA
 E2 C1 25 FF D7 95 72 6D 16 8B 1F 62 4B 5E 63 48
 C7 3B 90 EC 42 F0 07 41 95 59 D3 22 E1 84 9A C1
 C0 11 58 4C 54 36 EB 66 DE 42 BF B2 F5 6F 88 2F
 1B 8D 8E 81 AC C9 B4 30 1F A3 D1 C9 E7 56 ED 41
 66 CA D6 D4 89 5F 94 D7 40 6A 94 BA 7D 35 E4 C6
 79 77 B0 D0 71 DD A7 A0 18 96 D3 16 1B 2B 23 A2
 DF A5 E7 DB 30 64 23 B3 7F 22 7C C7 DC FB B0 37
 C3 82 EF E9 82 C5 02 B4 01 E8 F8 55 D9 E3 06 B7
 3D F8 AE 8F 96 0D B6 DF 65 C2 D2 B1 93 53 B4 5D
 65 DF AB A9 92 0B B8 DF 0E 15 A3 2D 60 DD 8F C7
 93 54 97 4E 62 47 2F 00 EF CC CB 1D 08 BA 91 5C
 C1 67 04 25 7C F0 E0 D0 BD 0A AB A4 54 E6 80 AA
 2E 84 DF E7 FE 24 22 35 81 F8 18 C3 F7 28 60 DD
 38 1A 11 47 EE E2 82 5C CA 23 D3 B9 E0 E4 E0 B4
 C5 8D 14 EC B2 67 36 73 9A 3B 68 12 F6 32 45 07
 DC 57 95 47 E4 87 D5 CC 58 6D BE 78 78 A1 42 B5
 7C 03 3E 4E B8 AD FA 03 F0 EA EB 4A 39 7D F9 4E
 08 77 CF 2A 10 E0 93 9D 28 F7 A4 91 19 26 05 DF
 2D C4 A0 4C E4 77 45 47 22 0B 25 9D 29 CF 51 AF
 89 2A 3F AA 55 59 73 14 81 9D EF BD 41 A9 92 41
 7D 06 B0 8B A3 E3 52 CF F0 59 E9 EE 9B 02 43 4A
 77 FD 08 38 06 02 73 14 97 AA CF 9B 5A 70 2B 28
 F3 76 8D 46 D0 2E 09 FC 31 C8 8B 1B 06 0F 9B 42
 EA 70 A2 34 66 B6 23 AC D4 63 E0 DF 29 EA D6 8A
 68 B4 B2 7C 48 8E 32 A5 40 A5 A6 0F 16 3C AC 14
 7B 9F 26 D9 0D A1 D2 9A DA B8 C2 9C 89 CC 3D 8C
 D0 83 15 B0 E7 04 60 6F 00 61 36 DE 3E B5 DB 35
 5E 21 4C 3B AB 9E FC 5D 23 AA 87 DE AA 8C A9 A9
 98 1B 1A 1C DD 36 B7 08 15 38 19 C3 AC 50 BB 1C
 82 3A A9 52 B8 62 C8 9D 4C 61 D5 27 CD 8D 62 AB
 4A 4A 0E 86 8B E9 53 A0 10 7F F5 AF 94 85 10 9C
 0A 45 D0 EC FC FC E1 F1 F6 28 80 18 12 2E BA 37
 AB DC 16 21 2E 37 EF 74 2D 5B CE 73 30 75 B2 3E
 C1 54 50 47 D3 4A 4C 43 1E 94 82 B1 37 4F A6 36
 A1 53 4F 6C 2C 64 F4 89 7E A5 54 FA 79 68 C7 8F
 15 EA 96 C5 F1 AB CE C8 92 AC 0D D6 2A 7B 63 0A
 FB 18 B0 71 8F 6E 54 0F 51 40 05 DB C1 52 77 9A
 EC DE E7 0D C5 2F D9 EF 2B F9 DB E8 37 F2 D6 61
 CB 3A BD C2 31 6D 66 AA 89 DE 48 9D E7 92 C2 8A
 98 36 D1 80 AB A9 33 7F 56 41 FE AA B5 79 4E 74
 C7 4D 90 33 36 F6 45 A9 29 C3 A0 26 07 E0 91 F9
 96 AE 34 9D AB 05 03 5A 2E 2D 70 69 3B 7A BA C8
 E4 24 19 DE 8E 0D 16 84 3B B3 BC 7D AE 11 9E F5
 C9 DD F3 6F 97 01 6E B8 E6 CC 5D A9 CB 3A E6 A3
 AF 2A 09 A5 48 ED 29 F6 63 BB 4A 73 8A 25 AD B7
 40 6B 7B 3B 10 56 17 A7 BE 30 ED D6 EB 25 5A 70
 75 74 C6 8A D8 C4 14 BF 07 76 81 F4 85 DB D2 56
 77 1A F7 38 01 01 D6 BA F3 10 9E 9F 98 B5 D5 98
 76 E6 2B D4 8A C6 31 A7 6E F6 D4 24 97 DE 74 98
 2F DC C0 51 BA A4 3E DC 0F C5 F0 7A A1 3B 26 28
 23 2B 42 DE 5C 64 6F B3 49 6E 2E 06 70 04 59 DE
 BE 41 EB 98 34 EC 8C 5C D6 A7 89 7F 1A 5D 0D 81
 9E 9B 21 C0 B9 6D 46 AD 27 6C 59 B0 94 5F 63 FF
 B6 AC 1F B6 89 CB D7 23 9F 9E E2 82 7C E1 DD 49
 BF 71 B5 9F 0A 2F 25 B3 7E 8A 19 5B CA 65 54 89
 02 3E 43 59 7F 48 01 F2 56 14 48 8E 67 BA 34 95
 6F 58 6E C4 E5 50 4A 1D 18 48 69 92 6B 63 A4 1A
 CC 06 2D 0E 27 A2 D8 80 35 C0 63 9D FA 2F 78 4B
 53 8C DA 3A 0F 50 7C F6 C5 62 2F A7 66 EB 9C E2
 D3 39 F4 89 2D C4 42 EE 54 C9 EC 51 98 00 33 7F
 DC 5D DB 0E 71 5F C3 52 16 50 4B 64 1E DC D6 A8
 F1 C0 43 61 7F A1 C1 CD 4B 37 87 02 88 14 31 D3
 6E 87 72 45 90 60 03 23 17 4D 19 68 98 B9 A0 34
 A5 7B D6 A9 CD 9F 29 6B C9 6A 6E 3C 29 BB 01 FD
 D0 50 9B DD D8 FC 62 67 5E AF 7D 91 08 7B A7 26
 DC E0 BA AE 0A 5B 69 54 D9 E0 F5 3E 45 1C 6C 43
 8D DD 97 4E 92 27 B0 66 C0 F7 73 E1 69 73 99 64
 5C 39 7F A6 F1 61 AD 59 66 F7 44 20 D2 78 AD 06
 4A F4 C3 C9 AC 6C B2 35 04 EF 11 D5 95 47 10 E0
 14 2C B6 D4 6C 3C A5 48 D2 3C 09 6A 08 8A FB B3
 7D 64 A9 6C 5C AE 1E CC 1F FB DB A5 C7 94 8E 9E
 43 36 75 3C 24 46 BC E7 C5 D8 EB E1 0E 71 4F 47
 EE 72 7D F3 77 EC DA 64 67 22 40 33 45 2F 59 05
 57 94 34 9B 2C 6E 2F FE 2D 30 79 5A C7 AC 3F 96
 64 83 7E 14 7A 16 B9 FA CF 0F 5D 83 B9 2A EE 1B
 70 48 9D 0F 8A 80 99 0E B0 20 EA C6 AA 78 9A EC
 21 94 BB B1 4B BF 10 4F 38 2F 2F 0F F0 7D 92 10
 26 BA 34 E9 F1 97 6E 28 2F 93 31 FE 45 7E 7F 78
 CA 84 E2 A2 33 AF 67 33 00 4F B9 AB 1C 5D 18 38
 99 C4 A1 7A 63 76 F2 60 2C 4C 29 7A 15 7A F2 3A
 28 76 BE 93 03 BE 29 ED 96 FE F1 00 3E A0 D8 D0
 9E 2F 44 38 F5 C7 8F 6F E3 C1 5E BA FC 07 DE 14
 42 21 A7 62 A0 DB 20 85 22 F3 89 F9 7E 95 E9 C3
 4C 8A 51 25 C7 9C 11 25 FD 39 BE 11 5A 2C 79 48
 21 5B A2 BF 3D A7 1B FA 27 9D 21 01 56 F6 BC E2
 69 A5 06 99 1D 9A 87 AC E4 C3 E5 4E DA 98 D2 A1
 0A F5 BD 81 D4 1F 8D A5 05 B7 05 80 1D 0A DB 84
 54 C1 CF DB C9 14 76 83 D7 F6 CC 9D BB 72 89 6E
 66 FE 00 45 CD DC 9D B9 32 66 15 F9 58 46 E0 5F
 93 3C A5 FD CC B6 C0 0F C4 C4 9B F9 72 81 AA 4D
 AB 1A C5 3F F1 33 B4 9D 0B FC A9 BE 98 2C AD 46
 80 F9 8A C5 24 91 7C FD 40 3A E2 3A 65 48 B8 E9
 04 2A DB 15 8B 4A 83 99 A9 C2 21 93 AA 37 E8 CF
 51 06 E8 F0 20 DC 45 5A BD 07 F4 65 25 25 5A 61
 08 DA 9F 23 82 2F 8B B2 F0 3B 18 5E CA C4 F1 E1
 5C 82 70 14 E1 84 38 96 29 68 A4 15 A5 C6 D3 CF
 E2 AF 22 D7 16 11 E2 08 69 D1 2D 75 AB BE 27 92
 78 94 AC 2C 89 A0 3D 9C AA 84 8C 7A 03 93 ED E5
 6A 91 F7 42 79 D3 05 77 5E C0 6F E4 66 7F C0 A3
 3C 91 73 82 C8 2F 9A 1D 4E 96 C7 DA 33 56 A3 11
 99 45 38 51 08 10 04 DD 2C 03 45 9C 92 8E 48 A0
 C3 D0 DE C8 D4 22 EB A0 93 98 9F 1C 1B 4B B1 3A
 2F 7D 77 AA 7C 27 22 6F 3E F8 E8 87 34 1F 89 07
 55 2E 93 5C 28 05 01 05 4A F9 C4 B2 B2 CB 31 1F
 1A 51 6E 08 81 0A B7 1D 1D D5 CF DC A2 98 C6 59
 7A CC EF 01 60 E3 F4 5F 56 6E CE 5D 3B 75 69 31
 B8 58 C5 A7 2B 37 00 26 29 90 E7 60 C1 8C 49 D5
 42 64 AA 38 00 B8 B4 A3 0E 0F 98 5E 29 A1 B3 0C
 D7 59 AF 00 F7 F1 09 1F CE 50 12 46 53 2F AB 0C
 A2 30 F7 B3 C7 94 DF AD AD FD C1 FE 35 7A 38 A8
 CA FA C5 82 5F B4 83 96 0A 71 41 F0 19 1D F5 B3
 1C 76 5F 80 CD 22 16 D9 27 F3 EC 76 C6 B1 38 23
 A7 56 3A AC 1F 67 AC F2 2E 24 3A 51 66 31 E4 E6
 91 D8 75 FB AF 2A F7 3B 7A 97 E4 9A 9D 93 34 07
 10 CD 3E D7 EF 35 EF 60 92 4E B2 25 55 4A B2 09
 CB 91 25 42 B3 B0 D6 7E EA CE D8 C4 F3 8E 4D 90
 1F 67 F8 D7 6A 1F 50 06 01 5B 54 DF FD F6 88 62
 63 81 03 4C 62 39 96 37 73 99 5C 28 68 3C 7A D5
 87 55 36 AC A2 78 67 28 C8 3C 93 46 85 C1 DB A5
 FD E6 3D DC 97 DC 24 65 1A 04 C8 45 91 75 2A CB
 B7 44 35 8A DC 81 AE B6 D5 D0 58 56 D5 DB F6 AF
 58 F0 50 4B 54 D9 1B 54 EE FB 0D 50 68 D5 71 0F
 F3 46 F0 29 20 F0 A2 00 50 7A B5 BA B6 08 DF E1
 C0 DA AF BC 2F 0B 70 A8 4F BD 20 F8 6A 12 E9 76
 03 78 F3 D3 B8 71 E6 1D 2E 28 86 36 BE 7D 7C CB
 28 14 6E CF F4 2B 2A A0 DA 53 C4 B3 1A 84 2C A7
 D2 09 48 B6 8D 5A B5 34 D7 3A DC 97 64 A9 32 7F
 F5 14 D6 D6 36 4A 06 ED 35 3F 12 F5 58 8E BB F9
 0B 5B 30 A7 10 AE D2 3B 01 BF D7 68 4C EC BE E0
 CA D1 0E DF F1 ED F9 FD 62 05 0D 96 BD 4C 05 75
 44 3E 1E 1C FA 36 C9 2F EA 5F 7F F9 2D 94 12 E2
 77 96 9B 0E 3A 1C 6F CA BA FF 1E 13 D5 A9 13 EF
 3C 49 57 1D 23 16 57 6D 3C C6 22 EB 6B 7B 26 84
 E4 8E 29 F1 E8 68 F2 E8 E0 59 E0 32 99 D0 86 82
 09 B5 11 86 FD 0B C1 75 16 76 72 60 DE 67 F7 41
 30 09 CA 6E 68 67 FD D5 AC 06 31 31 52 88 5D E4
 84 4B 93 6B 96 14 A3 D5 EC B8 B0 20 7E 19 B0 1C
 37 46 A9 48 4E 7F 01 1E 87 43 73 5F 4A 17 B3 5D
 54 A0 C2 0D 01 AA 89 5C E5 D1 0C A9 FB AC A5 33
 A2 39 9B 10 8B 9E F0 CD 34 B6 56 E5 50 6B E1 14
 B0 4E CB 39 AE 31 5D 31 16 33 8D 67 E8 56 E9 C4
 78 7B D2 68 86 B7 57 21 6A 1F D3 F8 73 C3 EC B1
 20 9A 74 C0 93 8D 96 56 3A DC 96 21 2A BD D5 D6
 9A 88 0C 68 34 23 4A 8C B1 B7 89 70 42 70 05 1E
 C0 11 B8 3E 5F 8B 81 BE 17 21 00 3B 9F 22 1A 1E
 2D 7A D3 E6 D5 D7 73 2B 96 6D 1D 06 ED 43 DC 4E
 B6 93 33 F7 8C FD 3C 05 2C 94 74 EB 73 EF 71 8D
 F3 13 98 04 7B AC 5B 73 25 3C 6F 48 9B 0E 42 2E
 83 5D DB D6 72 38 49 C3 F4 67 4A 06 FC 4E 2C 33
 27 48 B5 FE 5B C2 F7 F1 D1 A7 8C 2F 58 FD FD 0F
 7D 63 48 2A A1 53 04 05 DF 28 00 A4 07 12 FB 0A
 C2 F0 21 DA 42 3D F1 BB C0 92 F4 B2 FB 13 C9 57
 05 33 8B 16 F9 06 86 6F B3 E0 1C E3 39 EB 5B 10
 F4 CC A9 3C AB B2 C2 72 EC D2 20 42 E2 32 EC B4
 72 D0 EE EB 00 55 B6 48 14 9E 6A C8 22 BA 67 00
 18 F3 72 E1 07 92 CB D2 7C 7F 05 11 77 47 E9 26
 3A 9F A2 E6 A9 70 68 E1 3A 74 B6 B0 01 64 22 D9
 D9 D3 F0 73 8B 3E 31 EA B8 33 AC FD 29 3D 31 77
 CD 2B 70 47 28 60 7A 67 D4 77 AC 43 17 AF E9 AD
 15 6D F6 B4 C3 E6 27 BC 65 FD 4F 64 FE 49 22 48
 28 94 1B 1F 8E C6 26 42 61 42 14 AF E0 59 A1 61
 F0 19 B1 DE 83 82 A2 D5 59 F6 82 E3 A8 51 15 04
 D0 6E E9 87 3F 58 79 3D 2C E3 62 0F 94 48 E0 3F
 71 E1 2D B4 EA 2E 21 DD E1 A1 F3 A8 5A 31 C0 CB
 CA 70 3B 37 FB 78 43 20 A8 D9 FD E0 72 80 9B 95
 03 F4 8C F0 D5 47 90 27 B0 E5 45 9B B4 7E 0E F7
 A9 EB 93 D0 F2 9D CB E1 26 C8 D7 5B 6D 54 0B 6A
 0A 40 24 38 11 58 B0 64 D2 CA 36 D8 2A 71 EF CF
 C9 5C 35 2F EA D2 45 98 23 25 18 FD 0A 76 75 B8
 FF 5C 00 A3 3A D7 E0 E8 E5 9B 0B F8 3A 2D 90 CE
 39 61 6D EA A4 8A A5 94 09 05 2B A7 4E 50 07 83
 64 77 66 FE 92 56 E2 A2 BA 58 39 8F F7 BA 49 AF
 F3 48 CE E0 75 B7 07 CB 7C 25 6A EB 5A 49 C3 D5
 65 64 C0 01 99 6F F5 20 69 B5 8B 3C B8 03 0A E1
 21 9F B0 70 35 81 9D FA 83 9A F5 94 5B 85 DF BD
 95 3D EA B1 59 AF 84 CA 6E 28 91 17 D2 3B 70 05
 84 16 AF AE DD 85 B5 90 D9 23 81 6D 06 AD DB BA
 E1 D3 38 EE D5 EE A6 04 79 0C 22 1C 11 FC 7A 26
 06 2C 43 F6 31 52 8D 7A 63 79 26 B5 5D 56 59 54
 AC F4 9E D5 5C 68 5E 95 65 F2 54 1B 48 77 B8 CD
 46 D2 2D 00 D3 45 92 77 03 45 56 D3 B2 2D 5A F4
 AF 36 37 59 28 76 18 26 C4 C3 06 EE 88 EC 6F 0B
 B5 88 3C 44 56 4E C7 8F B9 5C 2F 30 7B CB 1B 13
 26 65 11 2C 49 4B 1B 7B C7 50 A4 51 1F 9E 06 76
 D2 A2 B6 1D A7 07 8B 6D 45 E3 A6 21 9C E0 62 56
 3A 9A D0 21 79 65 DE 43 9A E9 27 CB 50 AC DB AE
 CD E0 3B 09 D2 E3 18 D9 01 92 8C EF E3 D1 29 F2
 DC F0 67 5F 0F 67 56 90 B6 E5 CD A8 50 18 19 5D
 1D 9B 48 14 B0 90 77 56 0A 1F 5A 63 30 71 4E 57
 8B 5B 2F AA B3 F4 8C 00 4C 17 3C 2A 7B 17 D0 11
 97 E4 9C D1 27 3B FC 1F BF 85 53 C1 4C 08 FB A3
 B9 E6 DB 3E 3E 63 32 8D A1 06 FD 51 88 4A D3 EC
 C2 1B 27 19 2D EA 01 37 E3 48 5D 33 42 16 10 EE
 39 0B A8 F4 E9 04 BD 4F B9 1E 78 8A 06 84 80 CD
 BD 91 03 61 E2 62 D7 AF E3 A9 31 D1 1C BC 1F 6E
 F5 7B 03 A7 C5 D8 63 14 AB A7 14 65 EA 6C 42 83
 F6 D2 A9 A3 0E AF 6D 09 59 B5 8B B6 EF 7A F5 1C
 D1 B2 0F 33 F5 90 6C DB 4D 66 71 98 10 FE 84 EB
 A3 F9 64 CE 93 FD 71 80 FD C8 27 E7 7D 02 AA DA
 E6 E6 B9 9E EF B2 B5 F6 30 2E B1 25 1C A4 76 81
 7B 80 2F CB 58 F4 0E 3F E9 34 4B 3C D2 92 64 55
 E3 A8 04 E1 36 34 5E CF B7 B8 F8 24 50 88 AC F6
 27 4C DC 0A F3 20 42 11 D4 C1 6F D4 FF 84 A5 26
 8E 97 97 54 FD F4 0A 27 D7 B2 2B E7 86 8D 9A BB
 2F B9 2D 22 5B B3 28 CA 4C B3 54 85 D6 61 86 14
 1D 96 CB 8F 04 38 B3 2C C7 F9 5B 36 64 4B BF 86
 EB C8 0A D3 84 F1 6C 30 2B A8 C5 51 24 BD F4 88
 7C 2F AF BE 16 B8 3A BE BD 08 CF AF 75 11 A2 76
 DE 0D 7D E5 8A E4 C8 34 3F D5 E5 D0 38 DA D4 64
 92 D6 4B D5 AC BE 86 1F 82 A5 D9 C0 18 BB 62 BD
 58 7B 42 CC B9 94 E1 A9 F1 7F DD 18 6C 68 E9 B0
 FB C0 B3 B9 B7 90 BA 20 AA CA 18 B6 C8 86 3B FC
 FA 0B E7 09 D4 0B A2 65 AA F9 94 84 AA BA 37 23
 D8 8E C4 02 92 96 27 BE 16 7E 1B 55 09 61 BF DC
 D6 56 F7 44 14 84 BF 8F FB C7 7D 70 AB 36 0B 80
 83 82 7F E5 BF 6F A2 0A EF 9E 70 AA 41 54 A2 86
 68 57 EE 18 90 D9 D4 5F E6 9B AF D6 FE 9B EF D6
 6C 7E D2 A0 70 F0 FB 43 A7 02 3D 93 E9 56 0A B5
 AD BA F6 4B 58 BC 2E 1B ED C6 63 8C C8 65 B9 2C
 9D C9 7D 0D 5E 12 E8 BD F5 CB 98 CE 3B 56 33 F9
 5A E7 A4 BC 6E 59 57 C2 54 F1 86 51 06 0C E3 8E
 A6 BB DE BF 5B AE 8B 51 7D 13 DD 2E DF 1D E2 29
 61 B2 E7 11 64 0A BE 68 30 34 B0 9C 4A 3B 04 42
 94 20 1D 37 84 FD 2C 7C B6 DA AC 3E 5F B6 AF 28
 FD 1B EC 46 41 D7 C5 31 F5 29 3F 44 27 B5 A8 7E
 EC 3E DF 30 CD 60 90 E9 2C 6D F4 E5 3A 0E 71 75
 98 55 43 E9 4C 45 43 CD 13 D9 9E B1 E2 A1 AF F4
 08 6B 10 68 0B F6 4B A6
* End 2079803399 194778076