* LTspice Encrypted File
* 
* This encrypted file has been supplied by a 3rd
* party vendor that does not wish to publicize
* the technology used to implement this library.
* 
* Permission is granted to use this file for
* simulations but not to reverse engineer its
* contents.
* 
* Begin:
 FC B8 D6 3A 3A 5B 77 80 40 79 7F 0E D1 2B 69 00
 D3 5A 52 32 52 3D DB 64 76 11 CA 74 47 C1 64 49
 68 2D FC 28 35 FF B1 B2 18 A0 D7 45 29 3E 21 7A
 0C 47 89 91 B2 B7 26 C8 AB 2B 2F 43 32 89 52 68
 3C D6 A5 13 B9 01 8E E0 31 8E 5A 91 5E EB 59 82
 45 79 26 E2 EB 19 D1 89 A7 D6 18 B5 16 7A 18 D8
 1F 9B 19 E8 2D 5A A3 16 27 ED B0 01 80 4A A5 02
 A9 A6 D6 29 2D 7A EA BA 4B C6 0D 1B D4 84 1B 9C
 80 2B DA 2C 62 A7 9B 29 64 47 21 B0 60 34 65 EE
 D1 CE D9 8D 95 5A DD B8 9B 3C DE 09 46 DC 65 A9
 0B 2C 7A FB 34 FF 7D E3 1B DD 4C 9C 33 41 44 84
 0D 13 14 5B CD 9F A1 BD 46 EB 02 88 C1 52 34 34
 4E 36 CF 5D D8 61 8C 1A 2D FC 2A BA E0 09 61 2A
 17 C5 ED 90 E8 5E 4D 77 DD 52 88 1B CF CE 9B 05
 19 A7 0E 45 63 3E C7 9D AC 50 31 CB 37 9F 6D B3
 1E 60 E1 EB 86 3A 2D 7A 8B 3F 38 4A 2F 40 16 8D
 9F E6 77 AB FE B0 86 C0 8A 95 A2 A5 BF 1F E6 8B
 02 3E 22 9F 7D C7 62 13 93 B8 BF 8E 51 24 48 28
 48 BF 29 0D 3D 1A 75 27 4A 03 69 10 8E A2 6F A9
 4B 34 4A 45 AE 5A 00 BD E1 59 75 AC 3D 90 1B B7
 68 5F 85 6E 2A 14 03 10 53 6F A4 29 33 1D BE AC
 08 C2 34 C9 24 C8 87 67 2C 49 04 49 E1 13 43 71
 76 CE 9D 06 67 9D 41 D0 6F B8 34 76 5A 19 AB DC
 BE 2E AB 8D C1 27 49 1B BC 74 1D 1F 04 D5 B6 E8
 47 44 4C 59 7F 12 30 F2 E1 44 F4 C4 78 B9 3F 0E
 8C D0 8B B9 F4 0F EB 7C 33 A3 B6 75 1A 08 3B 89
 16 5C 54 7A 28 C4 7B 01 4A 11 89 59 8A 85 32 98
 70 BB 71 F8 BE 63 76 86 2E E7 93 73 8B 75 AC 32
 46 DF A5 A9 D2 4C 81 91 14 FF 1A 0E 44 39 AA 06
 1C F5 CE A7 F0 3A 45 E7 4C 4E F8 78 05 4B 37 2B
 60 0E 49 DE DC 0D DF AA D1 E8 AB 0F B6 0A B5 21
 A9 DB 39 31 D7 A8 23 78 48 73 A0 D6 1F 56 B5 A6
 D4 E6 A1 9B 3B 48 C5 3D 28 47 C0 B4 17 C4 41 28
 F1 E9 87 E2 3E 55 17 B4 FB ED 70 09 94 C7 61 49
 34 72 6E AE B9 D5 55 B6 C0 63 1C CA 91 E3 7B 76
 E3 78 D9 1A 9D FC C5 03 9C CA E9 1A 95 07 E5 24
 53 7B A0 A4 D2 63 75 C6 9D C9 30 07 33 56 AB 76
 9A 5C 94 67 29 E0 E1 49 C0 77 16 BA 22 6C 83 38
 EE 4C BD 58 05 0E 8D 2E 49 E1 51 4A 8A 66 CA 5D
 97 DF E5 D8 E9 59 6E 9E 62 2A C8 C9 7B 7D 71 97
 AD 51 2E D6 6A 8B 59 1F 2E CA CD 7D 19 30 BF 4E
 E8 47 8D C2 77 A1 E0 EE F6 9A 6B 00 34 E3 80 F9
 F3 99 8E 2F 22 EA C8 54 15 DA 9F AA 63 B3 D5 FB
 00 40 DA 96 24 C9 91 6E 4F F6 86 87 89 91 6A 9D
 73 1B D6 B9 8D 7A CB C3 57 F9 AA 4D A3 6A E2 3C
 F2 5E 1D F9 13 A7 2F C4 85 07 6B CB 76 79 DF 44
 44 0B 31 93 12 4C C3 D9 71 56 6D 14 64 B3 C4 B2
 EA 67 51 E9 5F A8 26 DC E3 0F EF 2A 48 13 B2 77
 BA 27 04 1C 7B E9 28 3B 03 F2 29 D7 43 60 F1 1C
 67 BB F8 AF FE E6 F7 C9 22 B9 87 DB 5D 00 C9 EA
 4C 0F 6C E6 0A 0B 65 0C 0C EE 8C A5 66 65 B1 28
 D2 81 4F 5F 63 CF 14 E1 05 99 49 A9 4D 8E C7 40
 48 CC 45 F9 7E D3 23 6D E6 49 34 FF D8 66 B5 83
 40 F1 A4 93 95 F9 F2 A1 DD 73 B0 2D BB 37 8D 70
 0B 5F 86 18 D6 39 06 E4 A1 34 D9 67 C6 01 E3 D6
 04 C4 6E AB 5D 41 1C C2 BC 84 63 AB 9F 1A 00 9D
 F6 CD 82 88 44 72 E0 B3 BE A4 7E B2 4B 12 11 1B
 86 8E 6A B2 0A 95 F4 81 A4 9B 6C 9E 93 18 07 25
 16 68 44 FA 78 0C DB 2D E6 9E 02 AF FA 01 AC 65
 A7 5D 10 85 C2 D0 26 DC 63 65 0C 25 9B 3F 71 46
 90 F6 DC 8C D0 AD 91 70 1C 96 03 88 22 54 15 ED
 25 BF EB E5 21 8C 12 C4 BB 94 02 C8 92 2F 60 0B
 0A A3 4D 2E 05 75 B1 97 3B F4 80 8D 71 CD 5E D0
 46 6C 83 F6 21 8B 73 49 6C C7 52 DD 15 B4 F0 A8
 49 2C AB AD 29 3E 26 14 B1 2A 0E 62 4D 26 36 FF
 7D BC DE F4 6E 6F 5A 14 7D 24 46 CC 98 D5 C9 AB
 CF E3 25 85 F6 40 F8 CB 71 92 AE 99 C4 90 AF 73
 BA 3C 95 B6 C2 8F 33 66 23 E6 73 DB 77 17 60 4A
 AF 09 85 91 46 4A DE 65 84 51 11 E8 29 95 1C 00
 6D 57 F2 71 FC A2 F5 CC 2B DA FA 42 93 07 6E 8E
 F4 6B FE 54 54 BB A6 9A 8B 67 9C B3 19 1E 01 02
 95 83 FC 46 83 88 73 52 A6 BC 43 B5 44 47 07 49
 17 45 65 FB 95 36 4E 3F 9A A2 10 F6 28 1C D6 81
 68 71 B3 43 F6 69 30 11 DB C2 FA F7 FF 1D 56 A5
 C3 91 E1 60 E9 D7 E1 DB 33 08 B5 19 FA B3 3D 31
 43 96 FE 59 8A E4 08 03 66 BC 70 BA 3B 5D CA 17
 ED 6A E0 E9 C9 2D 48 AB E2 33 F1 0A 72 02 50 5D
 15 A0 EB 68 C5 64 1F 4D 31 DC 11 19 FC 00 E7 6A
 E8 67 D7 B2 44 71 E8 92 02 E5 95 FA 16 7F E9 00
 F4 E3 EC C5 C8 56 9A C3 23 5D F3 C4 2C 69 89 87
 99 13 B9 46 C5 D4 A3 2F 38 F3 84 13 FA 4F DD 4B
 44 93 70 86 FC AE E7 3B CA 32 1B 10 34 18 FF 96
 73 99 58 0A BB D0 E5 71 29 B4 5C 95 19 59 97 0F
 EB AA 73 0E 50 30 F9 04 6F 0E 2E BA 3B 33 36 D7
 BC 93 48 5F 4D 5A FF 5A 43 C6 02 23 D6 7A B6 47
 A2 0F 64 AA 9A 6E 48 CD 1C 43 12 0A B7 85 5D EC
 77 5B 98 13 91 73 95 FF CC F5 14 DC 53 F2 9A F2
 0A 6B B9 CD F7 1B 6F 03 1E D5 FB 27 18 E0 EF 3E
 06 25 DC AC 69 75 9A A3 01 BA 85 85 99 6F C4 EC
 F4 A5 90 9D B5 FA 61 32 39 24 6A 59 11 ED 2B DA
 21 BC 0B 72 31 DC 6F 0F D4 07 58 98 A9 E6 01 76
 0A CF EB 09 88 09 B2 93 96 79 F1 0D 67 ED 0F F4
 AA 70 96 34 E4 1A 2E A8 AC 1A 07 70 C3 DC D3 FF
 7C F4 0E 4A 9E D4 7E 12 47 C4 53 94 E1 44 95 1D
 BD 7D F3 6A F2 6B 9D 5F 61 62 65 63 68 7C 69 4F
 31 61 93 1D 8C DA C0 0C 13 D6 97 41 FB 97 82 0D
 A5 00 1B 80 DF E4 05 D5 48 7E 1D 53 CE 27 F2 97
 AD FF 99 8E 44 89 AD FC 3E 86 C0 7C 15 94 D6 9F
 77 69 CD 40 A9 6F 1F F2 C3 95 1F C7 32 CA D8 4E
 E7 8D 72 4D BF 90 C9 1A 47 3C 7A 6E 58 68 7A A0
 D7 B0 49 FE 7D 47 F5 1E 5A 60 1A E1 01 1E 89 16
 31 D3 30 BA 81 EA 41 36 20 27 FC E0 CF 6F EB 00
 CF 23 23 F1 A0 AC C1 99 28 18 B7 51 1B 80 7F D2
 38 45 B1 4E A2 DD CC 51 8C A5 04 7D 41 9D 7A 1A
 4B 00 11 1C A2 DB FF F5 2A 11 53 AC 3B 93 E2 2D
 6A F4 72 56 76 34 A0 17 56 46 AB 7C B9 FA 1E A9
 48 56 7F 1F AC 60 B7 D6 46 79 E3 73 C9 48 C7 FD
 AD 4D 0D 78 3F A0 34 7F F5 8F E9 47 58 91 4B AC
 AC 2C 9C 38 9A 4A 11 17 9B 6E 04 CC 6F 80 EC 8C
 12 BE 19 5F 54 FD FD 76 21 88 13 68 77 79 00 34
 09 E4 AA 1C 90 06 5E 47 76 3C 79 8C 40 A2 CA 09
 4C F2 06 11 31 04 A2 2D D3 B6 7C 9A 1A 24 EA 07
 5E 44 90 B8 A7 D9 74 9F 12 6F F2 43 4B 22 C2 FE
 D1 27 44 AD D8 9E B7 35 89 4E FE E7 92 9C 1E 22
 63 68 A7 1E E2 30 01 FA A3 87 B9 A7 31 4D 5F 3D
 E2 19 7D 6E B4 2D 83 0E 5E 66 E3 EF 2C DA 03 74
 76 E8 DA 73 F9 22 2F 15 A6 31 45 B1 F9 B9 95 6E
 85 56 99 6C F5 7F 2D 75 8D F6 A1 0B 0C 13 21 9E
 80 40 7C 4D CF 9D 4C 24 A6 E5 EB 1C DE 27 C7 71
 D2 2B AF AE 81 C4 BA 4D 32 B0 05 A2 4C 88 39 AB
 17 5D 89 8F F0 7F 82 79 6D C5 A6 85 F8 6A 43 7A
 68 C6 C8 46 0A 3D 4D C0 58 7C DE D6 1F 8F DA 2E
 9C 29 2B 32 45 D2 30 23 3F 28 30 AA A4 E9 4A 36
 E2 3E 41 11 09 21 6E C9 CE EC B7 D3 9D B4 33 7D
 C2 42 EC 8A 32 0B F6 41 CC 68 7F C3 94 5C 12 81
 A2 81 E9 BC 81 D3 E5 C4 87 8D B0 63 43 A5 41 75
 92 90 A8 B5 FF B7 C1 67 86 25 77 90 12 BF 29 49
 4E 3E B4 A1 E1 89 E5 9E 74 7F 87 61 7F 4A 13 BB
 2A 9A 63 94 24 6D CF CB C5 97 63 EA 29 83 97 FF
 AC D4 1E 82 83 50 4F C7 0F E3 96 8F 05 24 EC 80
 63 D7 9E 72 9E 4E CC 5D 59 D5 E4 17 49 3C BC 90
 47 C7 37 EE 33 F3 68 E5 38 81 16 85 D6 D8 59 9C
 CF B2 1F 5D 38 E1 1D 29 9F 73 BF E4 1C F9 E4 9C
 45 65 16 27 4B 2B E8 F6 1C F1 59 BD D2 5D 19 B4
 3D 1D 38 EB D3 9F 56 25 65 75 CA D9 C0 09 E1 B9
 D5 0F A1 50 E1 0B 0C 26 DE 4B DB 5F 5D 25 D8 49
 A3 2D A6 A0 DE E6 52 7C 05 B9 66 73 38 21 6A CD
 BF B6 A5 9B BC A4 E4 B7 20 D3 8C E9 61 E0 AF DB
 7A E8 F6 5E C9 02 88 8A E9 50 65 BC 26 D7 70 84
 34 93 98 FA F4 52 5B 7A D0 A0 BA 05 DD 25 03 76
 FD 09 89 B9 A7 2D C0 CB B7 6A 4F E3 D5 EF AE CD
 ED AE F5 0E 92 5F 5E 00 52 C1 83 65 FF 7B 87 38
 2A B0 A3 90 09 D7 51 AB 9C E0 F6 B5 DF CC A1 C4
 34 93 63 1B 18 AE 48 A1 49 7A 61 B5 6E 3F 54 6A
 22 24 11 C3 9E 20 C7 77 5A 33 6C 8A DA 64 35 DF
 60 E7 4C 44 AD 6D C3 54 12 D1 69 0E 3F 2B F9 F3
 85 D3 75 7D 5B 28 36 54 9E 9E C1 58 41 8F 65 20
 D9 39 4F DA 64 32 4B DA 32 2A 58 90 38 DB 29 2B
 14 1C 5E 57 7F 3E D1 00 0C 5A 40 AC 93 DF E4 AC
 A5 64 38 3E 93 04 88 06 BE 24 34 3A B1 30 A1 18
 3A B3 1E 6C E7 C3 DB CA E1 7A 24 88 96 5D 9B 7C
 8A E2 7F 28 58 CF A7 A0 78 44 F5 D8 12 89 B9 9F
 24 21 82 D7 9A 8B 13 D8 5E BC 11 CC 0B 28 88 7D
 AA F3 FB E7 5B 95 7E D6 5A A0 F5 03 80 B7 6C 9B
 58 A7 C2 3F 51 F8 68 BC C7 FC 8A BC 9E E1 B4 44
 D8 BA 10 08 92 CC 4F 90 8B 38 94 17 AF 58 55 D5
 EA F4 A7 6C 0F E8 1B 8B 8E 45 51 53 57 34 BC 95
 33 12 66 16 B5 7F 97 09 ED 53 2A 02 28 EF DE 0B
 1B C6 11 A5 AA F0 C1 12 4B 96 07 07 AB 17 9D 6D
 F7 E7 18 60 09 0F 7F 0A 8A AE FC 49 57 54 58 85
 68 6A C5 DC A8 C1 BD 6A 99 82 A7 CF 48 60 90 D8
 F8 77 43 00 EC FB D0 88 26 C0 86 05 AA D7 6C 87
 2D 96 3D 98 70 3B 5A AB E9 28 E4 84 A1 6F E6 D5
 F8 B5 05 85 2B 68 2B CC 00 A2 87 3A F2 C9 04 5A
 7E FF A2 C2 CB 07 B8 0A 44 2F 10 7E A3 30 FA 68
 C6 8E 0B 6B 8D 9E C4 AA 6D A1 13 03 C2 AA C7 68
 38 09 E8 56 58 F0 1E 36 3B 6C 46 ED AA D8 94 A4
 7A 21 22 C7 67 4C 56 9F 83 8E 5D F0 F5 0E D0 45
 B0 5C 46 C9 EE 33 31 FB FB BC E6 B2 BB 3F 41 35
 B0 3E BE 88 E8 C8 65 3F CC E7 64 0B C4 3F 0A 92
 87 F8 29 29 25 61 5B A1 38 0E 66 49 38 6C BC A5
 9B 3C 71 73 55 90 5A 2C 40 00 CE 39 FD 9C 23 F5
 00 80 E0 23 6A B6 E2 B0 22 60 FB 25 D3 5E CA 75
 FB BA C0 48 A6 87 FE D1 48 5B 60 E0 15 6F BD 6F
 00 8F 9C 45 54 A7 64 1A D0 DF 2F 38 2E 15 86 C3
 05 2D A5 0A FA 87 96 B1 41 51 F5 38 95 35 15 CE
 A6 00 36 D3 09 DB 08 52 25 10 F3 93 F8 AE D8 3C
 91 FE 20 63 39 4A 7E A4 A3 65 D9 98 C2 87 0E FF
 E1 4D 32 F5 F7 08 F8 E4 36 3F 34 A8 DE 42 91 2E
 46 A8 0C 45 28 11 9B AB F6 03 E3 DB 62 09 E8 C3
 0D 76 6A E0 5F 88 B1 18 43 61 CA 05 7A 50 65 AA
 36 CA 91 54 45 7C DF 2C EA 01 23 56 66 77 17 20
 0C B0 45 02 7F 79 2D 07 20 FD EB 28 F9 13 B7 6D
 FA B9 5E BB 94 D8 A1 C4 5C 5A 7F C4 6B 5B 05 7D
 41 D7 4A 3F 0C A3 D6 5F F4 4A 19 23 53 C5 B2 8B
 92 02 04 C0 97 A9 28 31 88 5F D0 73 F0 22 67 DC
 AF DA BD D6 6F CE 0B 93 D0 5F B6 8F CA 44 D4 C2
 B0 E7 25 33 8B 94 AF 60 69 8C 9E 26 4A 74 D8 C8
 85 FE D2 D7 65 AF 4D 87 CC 9F 12 2C CE 7C E0 A0
 E8 13 53 3D F8 F8 6A 1D 2B B5 92 3A 7B 0E 35 A6
 27 08 A4 38 D8 AF 12 DE 9B 30 EB 4C D5 FD E3 12
 EF B4 BA 06 08 B2 D5 C1 EF F3 86 66 70 5A F8 8E
 1E 0D 51 FA DF 2A 5F 64 FF E2 F2 8B E5 BF 31 FC
 C5 73 9F 80 3C F0 2D 25 53 51 47 53 1C 82 A6 09
 7B 70 C3 87 6B 45 46 63 1A 25 B6 48 28 CE B9 C8
 5A DF A1 55 D6 A4 B5 E7 88 FC 67 50 C7 6E F9 03
 54 87 BC F0 07 90 FF 6C D2 20 B9 8E F9 AC 9E 24
 C2 C4 BE 1F 75 A1 1C 6A D9 E4 74 75 31 D6 6B 47
 B7 36 65 25 3E E2 D1 49 CC BA 8E DB 1F 1B 72 E9
 03 A9 CA E6 2A 60 D0 59 35 02 EA C7 5D 00 8D CA
 EA 1E 7A C8 77 E6 17 11 9F 79 DC B3 AE F7 03 E8
 75 78 66 49 FE 10 B3 F4 4B A4 68 CF 02 33 70 4F
 1A 46 48 F6 0B 0A F4 04 08 99 52 0C 5D 63 C7 E4
 EF 4D F8 A0 C5 3A 9E 33 66 3D 72 85 FA DF 53 F9
 CD 9A 36 01 CF EB E4 9A 3C 92 0E 06 A6 94 6A 26
 ED 2E 2C F2 F2 1A 55 73 7A 8C 43 C5 FB 0F 3B 02
 E9 10 83 D9 30 2E 23 9F 9F 69 0F F6 70 A2 B1 A7
 6E 85 C2 67 7D 1C EE 16 D7 CA 43 83 2E 66 23 91
 08 76 BD DE 4B BE B0 6F DD 83 50 6C 4A EC 18 F4
 CD 04 5B D4 41 A7 44 38 46 2A 39 03 E0 74 16 53
 C6 E4 FD D7 CC 77 92 E1 82 87 75 3C F7 F2 9D 41
 66 7A 09 28 FC 13 A7 D1 4D 2C C5 5B 97 E1 DF B1
 0F 73 A0 39 5F B1 2B 6C 33 4C 7D 32 93 B6 79 31
 7E D1 3B 54 29 1B 82 49 94 B1 2F 6E 6B 76 09 EB
 27 79 32 53 66 E8 6C E1 32 90 3B F7 81 02 00 DD
 25 08 30 4C F0 28 2C 9D D4 1A 6E 1C B4 14 C2 E3
 8C 5B 04 0C 30 1F 6E B7 40 1E F1 E4 B4 7E C1 99
 C0 72 25 22 B8 A2 B7 27 27 0D 52 1B 23 52 EE 76
 0A E9 90 FC DE AF 89 6F E0 E6 02 23 17 26 5D F1
 91 5E 85 1C 3A F7 32 AF 9E 05 AE 44 4D 52 BD 25
 49 1A 83 77 6A A7 81 97 61 3F 21 F1 90 E9 A9 51
 ED 5E 7E 58 4D DE DB 19 DE 3D 1E 0E 24 86 E9 69
 51 EA FE D0 73 35 30 D1 DA 1B 29 97 A0 65 E5 3B
 E4 E5 F0 E0 42 98 12 B3 F0 DC 2B 99 0B 60 59 61
 46 6D 35 A2 6E 61 54 F4 76 EC CB CA ED 9B 0D 31
 D3 29 3E 43 FB 71 AD CE DF CF C9 49 43 44 A3 40
 CE 47 E6 4F 61 E2 74 B2 3F 6F 0A 4C 40 0C E7 60
 77 5B 63 52 06 E4 F7 25 D8 BD 95 D4 AF 39 D6 C2
 DD 0A 62 D9 C2 D3 63 6D 55 42 93 15 67 F3 F8 AB
 30 96 C4 53 9B 0D 5E E6 07 D2 1B 66 69 8D 1D D4
 13 C7 DA 46 E4 FE 57 E0 19 AB E5 8A A4 51 EB 08
 A7 48 14 6E 7F 21 C7 F2 0A D7 1D 0B 53 1B 5A 80
 75 5E 2F 30 F3 F6 AD 92 E1 69 85 62 C4 37 38 CE
 09 1F 42 28 61 93 5A 25 3D 3D 60 36 15 D0 AE F4
 CD A8 CA 71 48 A4 BF 4B 0F A2 C6 B7 52 4F A3 3B
 AE 5A 18 15 F9 06 A1 A0 D5 B0 61 3E 9C F4 E7 A3
 10 8E 91 90 41 96 5F 50 1F CA D9 35 6E 23 7C D3
 9D EB CA 1E 63 4E 3F 39 3A D9 88 16 1B 63 1E F7
 FB 10 D1 19 6D 0C A7 30 E3 43 68 8F 66 1A CB BE
 E3 5B A2 C4 F9 F5 40 54 47 5A 21 F5 5B F4 82 5B
 2A C5 C1 A8 E2 58 D8 B4 77 49 AC BC 99 12 19 20
 13 77 D3 A6 FE 9C 55 FB 43 6D AA 9B ED 5B D2 3F
 89 8D B3 E7 EC FC D6 8D 87 05 50 09 F2 4D A1 A0
 9A DE F0 6F BE 7A 0D 81 50 DD FD 00 F5 F6 3B 31
 0F 82 55 EA 93 66 7A DC 8E 5E 16 50 3C 23 79 44
 ED BD 99 67 25 66 96 EB 9E C6 4F 71 BA 0F 75 7B
 BD 74 61 59 46 1E 29 91 56 41 E0 4D 09 8C 08 FB
 C8 F4 2B D4 8C E3 12 A6 1F D1 14 94 EF 0B E3 47
 04 1E C0 CC 68 50 52 4A 8E B4 99 22 EB 19 2E AB
 8A EE 54 F3 B4 7B 8D 02 92 0C 62 F9 BC 8B A3 03
 25 0B 8C 4B F4 8E 42 B9 0C 71 89 9B 4A 7B 53 C5
 B8 7E 23 8B EA DB 0A C9 32 FF F4 5B B7 AF 5B 13
 AE 33 42 44 53 2D 1A A2 24 07 41 D1 8D DD 00 A6
 EE D4 EB 74 8C 4F 89 A0 21 9F CB C2 04 BD E9 04
 D4 12 F1 0F E6 DA 6E 84 D5 22 8D BE 72 04 C1 A5
 D0 B4 D8 FA 63 1E 79 3B D1 1B 55 C2 DF 10 F2 FC
 A6 12 0B E0 F9 C3 FF 87 39 5E 5C DE 37 E0 96 95
 35 72 8E 5D AA 53 6C C6 88 0A 78 E0 A9 5A D4 64
 EA 29 CF 82 6E BB ED 33 E8 3A F2 90 01 85 1F 9D
 04 B1 0F 7F 12 50 FD E1 33 FA 34 85 65 00 35 D7
 37 E2 49 59 0B 26 A5 29 43 0B BE AF 11 FF 9F 47
 96 25 08 D4 A7 4F 37 1A B6 FF 7D 3F 0B 1F A3 12
 7D 66 D9 70 65 D3 F8 3A 41 A8 1D 44 2F 00 34 D5
 E9 65 21 2A 0A 67 71 50 42 81 15 A2 BE 03 DA 54
 A6 E6 14 C8 60 EA 7A 61 AE 03 87 41 4A D7 4E 47
 F8 BE 1A 3C 9E 74 EC 7D ED FD 1F B9 E3 23 61 EF
 8A B0 D2 64 DE 42 57 58 63 88 6D 15 ED 28 58 6E
 D5 0B BC 96 A2 F6 F1 D7 91 D0 B4 36 B0 F2 B8 78
 1E CC 17 A2 5E 3B B7 4D 5F 9F 76 C5 60 57 15 6F
 F3 04 5F 9A 8F 12 F7 8E 15 53 B8 99 20 77 4A 52
 97 C3 80 0E 71 75 6D C1 34 05 15 B2 49 D0 20 A5
 3E 00 D7 A7 DA 4E 2B 17 74 C8 53 76 D3 91 9D 8E
 A5 8C 47 8B 85 5B 48 18 DA 5D C4 F7 95 B8 6C E8
 07 E6 C8 99 BC BC 44 D4 FC D9 11 D6 78 12 FC B5
 22 66 45 E7 B0 06 6D 71 67 C3 8F 33 4D E4 51 92
 89 AB BC 0D 6D FF E6 4C A8 9A 17 7A 72 B3 2C 5D
 BE 90 AE B8 EC D1 31 74 9E 7E 63 E5 90 F8 35 DA
 1A C9 59 44 65 E5 9B 9E C6 71 9A 8B A9 61 99 74
 EE 0F 27 CE 99 3B 61 1C 23 00 2D 05 D5 EC 52 D7
 DD BB F2 8F 7B 28 98 8A 40 61 BD AD D7 16 31 9B
 59 5D EE 04 23 40 AB E6 B9 42 24 F6 FC 6F 0F 03
 4F EF 48 40 6D 29 40 D2 84 5F E4 18 70 53 85 4D
 76 60 EF 7E A0 E4 73 FD 5B DA 8C 29 75 FD 37 2A
 B4 59 30 EA 77 A7 F5 F5 DF 37 08 0A 3B 08 50 DB
 43 85 4B 03 6D 70 73 57 0D 38 A2 7A 54 F9 DD BE
 BA FF 91 B2 7E 91 5B A8 1C DF 69 BC 66 91 DC D3
 4E CE 2B 3A C2 80 E6 64 55 16 2D C0 BB 35 4E 1B
 8C FD 71 C1 6A 50 E0 40 A2 6A 87 76 1E E2 9F CD
 C9 14 F3 03 D3 24 FD D2 29 7C DF 6C 0C 1C B6 7D
 E9 76 78 A9 CF ED 97 85 EC D0 36 E9 8A 3F E2 39
 60 EA 77 44 5D BF 1E 63 7B 53 7A 24 C1 DF D5 3B
 53 46 56 83 0A 49 6F F9 51 F4 27 4A 82 6A 11 41
 E7 4B C3 F8 E8 6D EC 7C A6 8F 2B 12 D2 73 D2 D2
 23 FE AD 81 85 E7 F2 F0 02 78 6F 53 A4 1F 2D 8A
 16 2F 12 3E D2 62 9F DA 7C 28 A3 C6 8C AA E5 B8
 F2 E4 C3 CB 27 25 DF 0E 84 23 96 7A D8 AE 8D 62
 62 62 34 B8 3F F2 A8 F7 83 0F 3F FF 4C C4 67 3F
 70 43 39 81 29 45 49 1B 8F 34 AE E5 32 0F 99 A0
 47 F6 79 5A 07 47 31 71 2A 65 95 72 5D A9 E2 B7
 D5 F3 1F 30 81 98 A3 1D 96 06 6F 7F 1E 4F E9 E1
 69 D0 82 35 5F 70 AC F5 99 B6 69 3D 53 96 C3 34
 D5 7C 9B DB C3 2B 17 77 3B C4 2F C7 A7 39 7F CD
 A9 A5 17 63 83 97 E3 08 E8 4E E2 2A CB DB 45 DC
 94 E3 ED 31 5F 34 61 CB AC 0F 19 73 84 00 C7 7D
 DA 9F 9C E9 39 7D 3C AA C3 D0 B2 E4 A0 1A 09 3A
 B3 8E F1 AF EA F4 24 D3 A8 E8 0C D2 B7 A0 1B 8F
 70 5C 81 16 15 DB DC D5 B3 82 8D 19 32 DF 28 5D
 6B C4 D2 25 67 04 F6 6A B9 1F 0D 3F CB 10 17 B0
 41 02 73 85 60 1B CF 49 9A 73 48 BA 8E 1E 6F 48
 84 7C 14 D8 75 5C 92 0B 5E A3 E0 71 1A AE D7 76
 64 6F A0 40 D5 AD 05 E4 EB 2C 41 60 35 B2 31 A4
 41 66 EB 1A A2 54 8A 48 F1 4E AB 79 9C 07 32 97
 7A 1E 47 73 C3 95 90 09 6A CE F8 C3 FE 7B EF FC
 F5 1F 82 71 DE 02 28 D9 14 C2 10 DE 07 FE 29 FE
 7D 87 BD E5 15 FD 8A 9B 13 94 81 80 8F BB 83 05
 54 81 06 47 96 56 30 D7 41 C6 E8 F2 B1 EA 54 49
 86 2E B9 6E 0F 39 F5 39 D7 D9 9F F5 BA 6D A1 6A
 B2 1F 46 4D 92 86 6E A6 6D 59 15 50 D6 25 2E 71
 2C 02 EC 84 72 45 B3 F3 D0 55 D6 BA F2 98 8A A8
 73 21 EF 9D BF BF 40 D5 39 8B A2 60 0E 52 95 64
 5C 7E 30 B3 7C B8 CB F5 62 EC C7 59 34 8A 37 97
 6B EA 90 47 8C A3 CF 7A 39 D2 7A E5 CE CD 93 6E
 4D 0B 95 2A 53 86 5E 0C A4 0C 1A BC B5 7A A9 1A
 15 94 03 B2 7D D0 FE 0F 03 FC 22 79 9D 15 33 ED
 30 6B 0A 61 92 35 EB 56 D5 A6 BD 1B 64 FD A5 3F
 76 EA 82 F5 85 23 E3 1B 69 A2 92 8E 8B CB F2 01
 63 36 5E 8B 3E D2 EF 6B DB 4E E4 E9 2E E0 06 E9
 04 D8 2A 8F 64 31 92 05 3A 8E D1 ED 6B F8 1C 57
 DC C1 B5 4D 6A 4A 3C AF CC D4 01 64 EF 99 5E 92
 05 2E 83 5A 17 41 8A E3 0D 7B F2 65 57 F3 43 86
 9C 81 16 28 86 AB CA 34 EC 16 F9 0B 14 6C 81 78
 26 60 3C 88 3E 1F 31 9D 39 A3 2B 0E 4B BF 54 04
 A6 A3 57 BB 4F 2D 09 C6 31 63 0E 2D DD 67 C9 DE
 21 3E 65 02 68 7F D1 31 42 92 8C 63 7A 99 97 D7
 A6 A9 F7 51 16 1A 74 E1 33 D4 34 F4 4C 4B 04 61
 42 4B CA B0 5C C8 B0 24 A6 16 99 E5 C9 0F 9D 35
 E8 61 1A 1D F0 91 CD 80 13 6D 97 E1 D6 86 BA E2
 8F 61 88 49 91 C6 33 AF 24 AB DE 52 AF 60 16 D9
 76 83 29 49 58 B4 30 A6 6F F8 E9 83 7C 6B 8C 9C
 41 43 A6 12 85 B5 2A 9D 65 50 04 66 94 2D C6 3F
 7A DA 7A 3A B6 AD 22 42 48 87 E3 85 C4 0A 3F 5D
 CC 8B EE F0 00 52 97 B2 AD C0 EA DB 08 3C 1C B7
 A8 27 1B 06 FF B8 C1 8A 09 52 65 95 95 35 52 74
 D3 AC 36 BD AC D0 C5 A2 58 AA 06 CD 71 93 BA 7D
 68 13 B4 11 87 01 D2 A4 FB 2F D8 94 E7 0F D0 9F
 66 3F 6B FF 9B 17 ED AC 34 B7 F8 55 78 CE 3C 36
 FA 5E 51 FD FE B6 C9 67 A5 E3 D1 3C 56 29 20 C7
 61 EC A5 89 1F FE A2 B2 0C 31 D9 F2 C9 C4 27 B5
 D1 CF E5 BB D5 29 29 1E 02 DF D2 98 BB C1 5D 93
 7F D6 2F 9B CD 12 28 81 22 56 BD D8 E4 05 B7 08
 59 60 04 77 45 9B C2 DF C4 93 EF 45 DE 9F 9A 5E
 20 A7 FF FF 27 90 1C F1 25 4F B8 AE 32 73 B6 C5
 F6 22 84 61 74 88 17 8D EE 06 D8 90 41 63 F1 76
 ED 23 D0 63 04 C0 82 9E 7A 76 6D D5 B0 3F 3F E2
 54 13 7E F9 EC F3 57 C2 B1 0C B6 B5 2A CE FD 3D
 7A 5F 06 F9 E7 C1 21 82 60 01 CB 90 0B D4 F3 B5
 3F 4F A2 78 DF 11 28 BD 97 AA 65 5A C8 B4 A9 3F
 1F 7B 62 76 6D 29 8F 62 7F 51 42 C4 00 38 A2 34
 96 F4 79 FB EE DB 36 12 E8 D1 26 62 4F 49 E8 25
 2F 4D 0A 16 21 0C 6E 16 12 3B 5F 90 9A 63 B2 83
 E2 2B 0A 3F BB 98 98 72 1F 2F 12 50 72 D4 3B E0
 1D 25 65 99 AC C2 2A 08 97 E7 D7 43 56 C9 45 17
 2F 94 16 27 4E B5 2E AA B4 E6 55 0D EF 9B 29 7E
 39 8B D2 05 49 F1 EA 1A C2 6C 95 47 BD 99 A1 0D
 83 1F 60 3A E0 38 85 12 34 6E 06 66 87 44 A0 F5
 C3 D3 63 71 22 6C 56 85 B9 10 C2 46 B2 40 7E 8B
 9F F7 82 7E 73 99 AA 36 13 9F 9C F4 0A F9 04 BE
 02 E7 0D 8F BF 16 57 54 AC A7 90 EB 7E 60 E5 0A
 CC 13 14 D5 F1 37 B0 C1 1A DF 1E E6 0E E5 28 CA
 BE 1A B0 8A 5D EF 88 7A B1 B4 71 77 E7 50 64 13
 BB C5 4C E8 7D 6F 07 0B 5D 17 BA 54 E1 A9 0E 3E
 24 40 B6 B1 0F AC E4 6D D4 F1 BE D6 CE EE F2 87
 FB 62 EC C4 BF 51 0D 22 53 24 F9 C4 CB 94 AA E3
 5A F9 2A 37 F8 25 62 E5 EF 7E 4C FF DE 6B AB 68
 6B F0 62 DF CE 50 7C DA 3F 53 1B D2 32 CD 8A 15
 4F 29 19 50 D7 52 3E 26 0B 2E A6 69 FD 6C 99 40
 99 0D 0E 1F 1A 52 30 69 2C B7 09 CE 90 FC 30 33
 41 98 05 2B 81 27 2E FC 76 10 57 82 2D 45 3F F6
 9A ED 17 AD 88 A7 FF BD E9 20 E7 24 36 C4 61 BC
 B6 A4 52 02 6B 2C 9B E6 84 00 6D BB 49 9C 00 6C
 91 75 33 2F CE F4 10 3B D8 AA 25 B3 12 8A 40 5F
 CC F4 8D 74 30 D2 C6 20 AF 39 D7 13 C9 E4 EF 9C
 83 BB F8 6A 71 23 98 3E BB D3 0D 97 05 F3 04 C7
 97 9F A5 62 08 F4 B3 AC 2C 93 C2 6F F7 27 0C C7
 EC 68 69 5A FE 67 DC 93 F8 A4 F3 A1 0E 48 62 8D
 06 12 42 84 B4 1D F8 A2 AE B2 BE 78 E7 6D 65 0B
 F7 EC F9 89 DC F1 5E 9D 11 50 FC 57 D1 20 19 97
 7E FF 54 DE 30 37 A1 98 B9 AC D7 E4 E9 AB CF 1E
 D3 C4 CE C6 3D 48 51 17 96 A2 34 42 2B 95 42 91
 CC 8E 33 3C 46 DD 2A F3 5F A1 4E D8 55 CD A9 75
 89 A8 38 06 64 58 91 5C 89 DD B7 68 48 B9 AC 9F
 FE 45 B3 5F 71 F2 64 81 37 1E 53 C8 36 C6 EC 56
 C7 84 21 16 10 83 4E 2D BC EA 7F 91 73 93 7B 96
 B7 3F D1 2D 36 1C C4 30 3E 15 C1 D4 BB 69 CE 86
 52 8D A9 78 E1 88 E1 0B D8 E3 1E F2 E0 08 3B 04
 B1 9A 32 0B F0 0D AC 26 FA 77 26 44 14 04 53 80
 43 35 37 4F 3B D0 F7 8C 1C D0 F7 70 72 36 5A 30
 56 27 BF AA EE 63 79 B9 11 E9 74 E9 6B E2 5D E9
 C5 77 D2 7E 0A F0 68 3A 08 77 DA 42 74 37 FA 9B
 60 F4 AD 4B 84 FC 50 5B 4D E6 14 74 8A 38 D4 D5
 EE 62 1F DD 34 09 5F E9 23 D7 34 C6 E6 D0 F0 22
 DF 16 05 8C BE 4D 90 EE 02 F0 5C 1F F7 E7 8D 04
 A9 9F 45 94 5A 3A 7F A3 76 0A A9 0D 25 74 4A 44
 81 89 A1 E3 DD 7A E2 F4 92 C8 CA D2 0F 74 BC 26
 F0 C2 A7 CD 8C 7C 77 F9 18 07 B0 8A A2 1E ED 3C
 76 E5 12 DE 5F F6 F7 25 40 CA 05 0D F9 15 AB A9
 54 8A 64 B1 3C 81 0D 87 9F 97 41 82 77 F0 B5 97
 08 27 76 24 BC 05 C5 72 B1 48 A1 63 98 DD 4F 0E
 04 B4 87 5F E1 C2 BF 67 8C 4B 9A 03 59 65 C2 D5
 09 C7 C3 FB 37 96 33 EE 5B BF FF AC 8A 67 9C D7
 2D 45 B4 E9 A4 81 71 0C 59 47 92 70 B3 82 69 BF
 38 A1 FB 8E 18 1D 34 1D F3 2F 70 13 E5 82 94 3D
 A6 45 78 CD ED 84 53 0A F2 90 CB 75 31 67 31 D0
 1E D3 60 9A D6 5F F3 43 69 B4 65 F9 D1 90 DE 60
 FD 31 5E BA 05 E5 EE 8E 9D A6 65 04 33 A2 DE 98
 09 56 5B 15 CD 8A 2B 17 67 9B 50 2C 13 DC 8E 98
 94 74 E0 35 C4 25 D5 E3 DA 58 3D 14 0A 13 8E DE
 3B 95 81 70 E9 E4 B7 82 C5 35 76 62 8D EF 2D DB
 D0 05 7E 4C E6 40 E1 C4 9E 3E D4 34 DB A8 77 A3
 83 B5 F6 47 23 87 74 E9 84 BF 1B 13 EA 5A E4 60
 FB 2B AB EA 2F 00 40 6D 33 CE 7D B7 DF C9 1D AF
 2D 66 F5 7E 66 B8 FE 21 A1 C7 75 3B 01 56 E9 95
 BD 9A 9A 29 A3 12 94 FF 6F B3 8E 61 B6 1D 4B D5
 F2 09 70 33 00 ED 98 C0 3C D5 38 37 36 A6 2A 59
 E5 6E 53 92 12 2F AA A6 70 61 47 A0 48 80 26 DC
 CD 91 E5 EC 8A 82 ED A4 42 03 D7 81 9A 44 46 88
 88 79 ED 97 49 8F 48 13 76 53 34 8C 03 FD 85 A5
 1D 3A ED AE AB 25 D4 5C FF FD 79 61 20 C0 5A E6
 0A BB FE 3F 28 C7 5C DC DF 94 F3 1D 89 5A 3E 36
 EF 1C A6 33 6D 53 20 25 59 78 D7 15 E4 94 84 6A
 B1 8C 28 F9 4A C9 7C BA 6D AA 2F FD 1C 44 0A 35
 59 62 28 55 4C 40 F6 51 8B 69 52 11 B1 C7 50 B6
 71 53 C7 B5 FD 59 3F 3E 85 C0 52 91 A4 A1 23 0B
 8D 0C DE 77 EC CF 47 A1 B0 07 A9 E8 9F 42 1E 6E
 23 6A 66 A2 DB FD 19 AB 30 48 46 00 45 1D CA 81
 89 96 5B 3B 9E D8 45 CF 31 20 33 17 93 98 26 5F
 51 BB EA 43 B7 B4 F6 B3 F8 EC 7E 8C 6B D4 DB 8E
 16 3F C7 19 7B 17 9E 73 2E 26 62 4D 3A 4D D3 4B
 27 61 6F 40 50 F8 EC 9C 1F 8C 29 87 9E BC 88 39
 1D 2D 35 7C 88 21 AF 4B 82 17 A8 92 01 F5 34 79
 D1 83 12 2D AB B3 85 B6 03 0B E7 22 9E 24 B0 45
 80 CD 30 E0 6B C1 1E 08 EC D3 0F DB 7A AB 5C CA
 71 27 92 DF EA 58 0F 52 B8 3F E0 46 E9 13 30 E8
 21 01 2D 73 79 4B 8F B0 45 A6 AA C2 DD 4C 6C A4
 A4 D6 7A 0B 05 3D 5B 53 D6 49 6F 1F 0C EC 2D 42
 DF 40 D3 9E 92 4B 39 2D EF 40 6A 7B B0 83 E2 54
 41 19 A0 0A 6B A5 70 9E 11 57 C9 18 28 28 36 91
 DB 12 0C FA 41 01 C5 06 F2 7D 4C 20 5F 6D 97 0B
 18 39 C0 1D 26 AD 2C 43 54 60 9E 92 C2 62 B2 31
 94 3C 85 81 40 E6 6E B0 FC E0 63 11 EF 7F 04 21
 CC 7C 6C AA 65 EC C7 72 B3 AB DD 1A 86 78 D0 3E
 6C B9 D1 C1 2F B4 D6 68 62 3F 39 76 18 1F 47 F5
 42 AC 53 B3 BC 76 03 19 AB 98 57 A1 C3 BB 42 87
 93 77 68 04 B4 BB 65 4C E1 23 7A C4 00 35 95 37
 4E CA 56 21 D7 37 56 DA A8 11 AD 44 93 CE B0 98
 60 24 8C 3E 55 59 56 14 DF 2B AD 2B 11 BB FB 88
 50 5A EB 7D AC 4D 70 D4 B0 B0 6D A4 B3 4E B3 5D
 AA 37 B0 99 9A 49 31 05 2B E7 6A FA 74 84 0D 53
 DD CA 3C A9 71 A0 34 4C 49 79 33 0D FD FD 01 0F
 C8 AC 7B BC B1 6D 42 AD 78 D2 3F 63 EC B0 10 E5
 69 F1 64 A8 65 67 03 77 CA D1 A2 B7 33 10 51 0E
 25 42 6F DB D4 6D AD 63 C6 A5 9D 27 1B 94 AB FA
 C1 7E E3 6A F4 DE A4 74 A8 37 42 1B B1 8B 03 55
 CB B1 9C 49 5E 85 64 B4 60 CA 3A C1 D7 DC CB 20
 98 73 98 19 D9 AA 7E 75 B7 73 09 24 82 02 B4 D3
 8D 64 FF 94 92 26 19 0C 4B E3 96 A8 1F 4B 35 CA
 49 96 BC C1 AA 6B 0C 37 87 60 5C C8 CF 3E 40 05
 DA 66 13 A0 07 17 27 20 AD 65 F8 DB F7 0C 01 DF
 C1 4C 7D 2D F4 F9 FB 0A 5E BD 30 DE BD 1E 64 5E
 16 B4 E8 19 DA A8 80 5D 7A 0D B7 04 D1 75 05 16
 9B 80 03 F5 31 20 EB EC 08 32 D2 E3 B3 0A B2 0D
 89 C9 04 CA BF CF 37 D8 4A 81 C4 4B 0C 15 34 3F
 3C 51 65 AA 81 DB CD 6A AE 77 82 A1 FC 86 2D 76
 F9 08 6B 43 5C 2C 42 B5 3E 82 AE 45 97 21 1F 0E
 E7 94 AA D2 C3 F6 74 E0 1C 33 FA 83 21 4F 15 8E
 52 C2 83 0C 89 1E BE 23 8E 21 42 5F 39 3E 80 C1
 06 70 81 71 8A C7 34 50 7D 9A 0E E7 D4 52 45 E9
 01 5E 1F 4E 81 4F DD D6 5B 8C DD 32 70 03 B1 BD
 99 A5 78 62 B7 42 32 D3 2B E6 AD 4D 15 32 1B D3
 C7 54 42 9B 8D DC EB 47 1B 43 A7 A8 1F 60 08 97
 1A 04 9F F7 A2 32 2D 55 C6 52 CE 79 39 E1 ED 49
 7B 28 E4 28 06 76 66 82 EF C7 56 69 55 99 A4 B6
 9F 27 46 04 DE 54 6A 0B C8 1C 98 A6 27 C6 0F AA
 39 AC 71 DE 66 DC F9 B8 28 B0 09 91 A8 EF 69 0B
 12 EF 02 D9 50 4D EA EE 48 A2 56 2D D5 68 26 E3
 6C E0 9C 8B 5E 7D E6 DF 4C A8 22 56 2C 57 2C BF
 4C 33 5F 10 AC 56 16 7F 1B 9F 75 08 25 F6 F8 CB
 90 E2 51 E8 B0 84 A5 33 CC 95 CF B9 FB 6E 86 8F
 71 45 B4 1C FB 35 31 27 65 23 E3 CF 63 64 75 E3
 76 98 BB 70 53 9F 34 D9 26 E7 DE 25 A0 55 CC DE
 99 60 A6 5F EE 04 CD 01 9B E0 EA 1D AE C5 BD 68
 3A BA E3 FB DE 96 73 74 A4 3F EB 1E 21 45 5F AE
 25 FD 18 E3 23 5B 76 E8 6F B4 4D A7 E9 4C 1F 83
 00 0D 2E 0D 04 D6 AD 39 27 88 41 23 0C E4 4D 83
 C7 4B C7 60 11 8E FA 00 EC D3 01 DB A2 D9 AA 61
 8A 6C F9 81 54 9C A8 79 47 79 08 02 29 3F AA ED
 6E 0E AC CE BD 9A F0 C7 C0 27 D6 41 79 43 E0 49
 62 BB A7 FF 4A 19 80 8A 18 97 6B 46 5C 5D 7C 3B
 EE C2 E7 8A 06 E0 55 8B BE 25 2C A9 40 EF 9D 9B
 77 C2 AE 26 6D E3 B7 9D 6D DC 0F F6 DD 4D 90 85
 20 10 36 D4 1F 6A 46 BD 3B 1C 77 2D B8 04 34 39
 91 37 DA 51 76 2D 33 4E A3 51 E7 F7 03 E5 6A 08
 1F 3B CD 5B CA 28 D6 1B 9D A7 12 E0 A1 FA D0 A8
 8A 57 26 3F DF 2B 10 99 32 FA 88 FB AB 68 56 46
 1C D8 29 D8 C6 FC 74 83 F5 FA F7 56 F8 61 99 95
 20 BB 0D 01 6B BF F2 49 3B 72 EF B6 69 DF 08 75
 EC 09 68 99 BA CE 3C B1 26 E3 A0 3F 2F 32 22 CA
 DD 5D 70 A7 AF 83 62 AC 72 F4 14 9B 48 4D BE 49
 AF D4 12 F6 36 52 4A 82 10 F5 53 D0 87 42 EA C9
 BE 12 57 21 B4 A6 68 5F 17 A7 4A 92 91 B8 49 B6
 25 4D 5D 3B 38 0A 94 10 64 55 35 4F 60 77 67 B3
 44 58 CA 65 86 BB 97 D0 00 90 9E E5 0A 72 F1 6E
 53 CB 9E 8C 35 3C 7F 74 38 30 FD 3A 2A C1 9E B4
 3B 58 22 E3 3D 2D 8A 50 A1 03 90 DE 3B 2C B5 2B
 7D E4 10 69 7D 50 09 E2 5E 61 E1 50 BF C2 D0 AD
 92 55 87 80 D2 7D 39 25 04 35 AE D2 3D B4 9E E6
 33 BD A3 54 14 58 93 0D EE 99 31 7C A4 B0 CB AB
 FF 3F 5E 80 40 B4 64 2C CA B2 C0 F6 4E BC 4F 33
 B7 A1 6A 78 C5 B3 B0 10 69 F5 36 B6 2B BF 1C A7
 CA 8D D1 66 C7 41 4A 45 3C E9 EB 0C BF 27 CF 80
 C9 B5 95 7A 1B 21 41 B0 1B E3 A6 85 1F FE 73 C2
 4D 5B 4C B2 2F 1F 02 0D 18 93 A8 CE DB BD B6 66
 9C C0 07 8D F8 42 30 8F 01 45 DB 90 F7 5F BF 6F
 19 4E 25 24 30 D0 EF 7C 03 C0 9E 73 6F 11 DE 68
 58 42 D2 ED 25 B2 63 D7 99 6D 32 DD 5C D4 D4 59
 2A A7 97 73 94 41 EE 37 3D 79 7C DB B8 A5 A5 40
 38 A7 3B 05 B1 EF 97 A4 C1 DF DD A8 0A 86 3B 7D
 96 9B D6 3B 76 F6 AF 50 C3 C9 9D 25 CC E6 11 61
 E6 D9 AA CB C0 84 1C 76 29 53 E8 35 B8 33 07 B0
 2A 3E B5 C3 EC A4 7C 03 0A 41 C3 98 07 13 61 06
 56 60 18 7C 7C BB 49 CE 24 D8 F2 21 53 1D FA 4C
 F3 9C 1A 0E F0 4F 69 46 EB 00 A1 AF FF 75 A7 57
 98 A5 36 DB 20 92 1B F3 03 5D 3D 26 CD 1B B4 0F
 E9 7C FE EE C1 D6 15 EE F4 7E 86 12 B4 D3 94 02
 15 EF A1 B5 9D 28 44 44 20 4D 15 BD 2F FC 10 26
 8F C2 98 8A DD 4A 33 8C 9A A0 B2 FC 0B 84 8E 77
 EE 53 DC 4A 79 35 75 3D 6C C5 A9 0A 34 6C 1A 93
 59 37 6B 27 83 65 C8 08 62 5D 07 97 65 6A 63 41
 E4 7E 65 E6 9E 38 91 51 F3 F6 39 35 10 19 F0 42
 E3 72 76 C1 66 81 AC D3 AC 9C 58 73 B9 54 21 44
 52 C7 57 4C A6 D5 CB A5 EE A1 FE E5 60 87 BA 26
 44 2E 7C 1C F0 E6 91 F3 F8 87 E2 10 4D 4E 1F F5
 48 9C 75 B9 8D 8A 89 61 C2 A1 91 11 58 6D 74 5E
 7F 36 11 AA 88 47 48 41 A4 0B 53 DE 0A C5 40 9B
 A8 AF F0 30 B1 23 86 3B C5 7A F5 99 1F 23 85 DB
 17 4F 13 F6 54 78 25 A0 CE EF E8 31 BF 5B F2 F7
 0F 42 1F F8 B1 29 B9 5F E2 E9 F9 9D 16 A7 F6 6E
 07 17 9F 68 B5 F9 D4 2D 80 2B DE 16 F0 EA 54 5F
 3F 34 BB 4E 68 67 A8 76 94 26 6F 71 90 75 90 5E
 63 AA 44 AD B4 AC C4 40 D2 22 7D 7D A0 A6 FF 2D
 42 01 7E 37 CD E6 97 7E 8D 85 15 64 91 3D 76 EA
 57 C8 70 F2 B7 36 19 83 30 52 6C 6A 92 11 BA E4
 84 A6 0B 6C 9A 1F 87 B7 42 29 56 DF D2 1D AB 6C
 22 1D 93 B8 6B FB 1B E6 78 25 66 02 29 02 BD E5
 6C 4E B3 B1 F8 C2 FD F0 4E 86 2E 7E A0 E9 61 91
 87 0A 5C A0 E6 7F 32 AB 96 71 5D 53 9B 3E 49 F0
 88 28 0B 2B 88 D2 7F 48 00 F8 5B 5A 7C C1 8F 18
 E1 9B 51 DB 9E E3 F8 A3 F6 47 7B 7E E8 EA C9 F2
 BB 0A 0C C4 ED 9A 38 BB FF 22 B0 2B 29 A6 6A 20
 08 66 BD EF C9 59 5B FE 2F 16 DF ED D6 3F A9 1A
 57 B3 61 DF F8 62 32 CB FB 0A 53 72 04 AA D3 5C
 B3 0F FC 64 07 55 BF 82 27 1F F0 20 25 81 FF F1
 C3 92 32 E8 DB 78 76 EF 04 05 B6 E2 08 F6 28 40
 73 2C 68 72 42 9F CB 25 33 01 A5 88 FB AA A6 2F
 14 B6 18 F4 98 DA 69 43 76 98 4F 8F D4 28 C7 F9
 AE 5D 0E CB CE A6 42 25 EC 62 1F F3 83 70 29 11
 D1 65 B0 30 15 3D 06 07 83 30 A7 AD 7D 2D 74 58
 B5 60 C8 B8 1E B3 D8 2D 34 54 4B FE 81 05 6D DB
 C5 13 86 C3 3B 5B B5 94 20 5A D9 DF E5 64 12 65
 B8 C9 DE 0C 3F 01 F5 3D 28 8B A1 31 15 75 2A B1
 52 0A A1 DA 73 10 0A A5 99 19 E2 19 F0 10 69 4D
 DC A1 FC E9 C6 2F 6B C2
* End 2943808349 2657359059