* LTspice Encrypted File
* 
* This encrypted file has been supplied by a 3rd
* party vendor that does not wish to publicize
* the technology used to implement this library.
* 
* Permission is granted to use this file for
* simulations but not to reverse engineer its
* contents.
* 
* Begin:
 97 91 A0 66 22 77 74 7B 62 FB E7 77 3F 60 10 4F
 95 E3 88 D2 5C BC 8A C1 CA 59 2D 9E E7 9A D6 13
 DC B2 66 D1 48 E2 08 52 6A C5 D3 69 5A E6 F7 4D
 60 E6 77 EA 6E FB D9 6A C7 96 F7 BC DE 3B 77 3E
 2F EA D8 71 DD 8B F4 E2 86 41 A6 07 05 CB F8 DA
 A9 94 3E 26 24 9D 7E 85 9F 05 7D 1E BE 91 31 E6
 57 2C E9 5D 0B A7 A3 9D 16 1C B6 58 FF 4B 3D 1B
 8B EE 97 5F A3 F3 1A 10 72 ED F9 65 16 88 27 21
 A2 DE 92 C1 B1 DA 67 7C C1 87 6C 26 63 46 32 CE
 B4 79 B7 0E 73 77 6E 9B 59 2D E7 E4 82 07 B4 2F
 1C E8 48 4A 9F 78 79 39 A2 AE 0E BC 67 BA 44 8B
 CC 49 21 CA 7F 60 B9 60 63 82 14 47 7E 71 7F DA
 8A 07 7E EC AC E6 FA 9A FC BA 31 77 A6 24 D0 A2
 08 B6 5B A3 9C 1C 42 5B 39 06 9A EB A7 DE B0 56
 EF 2C 00 8F E5 B8 B8 39 9B 11 F2 0E EB 4F 2B DD
 60 DE D7 71 E8 F3 8E 5A B1 B7 F0 EE E6 EC 66 E2
 47 A4 68 B4 AB 44 9B 23 E7 C7 90 BF C6 9D 9E 26
 7C BF 40 7C B7 9F 70 95 E9 DA 01 B9 51 72 4F 4B
 4F 28 C6 10 ED 72 76 58 05 B8 E1 3E 3F 89 8D EB
 8E CE 00 6D 86 90 5D 6A 13 FA 09 08 BE 50 AD 18
 4B 49 70 99 96 CA BA 31 19 B6 8D CC AB 1D ED 1F
 C1 19 39 2C 8C 24 78 98 8E E5 A8 F0 1E 76 38 65
 27 38 0C F5 7D F0 66 13 E0 D7 32 11 98 6D 29 35
 E0 E3 52 FC CB B5 B2 5B 38 02 66 D1 52 EF F2 3E
 D1 10 D1 1D 0E 93 45 D9 12 C2 DB 52 E0 52 94 9C
 5B 0E 0D DD 3D E0 7B A3 3F D8 72 3B F4 F2 4E 98
 4B 09 78 87 69 8C 50 53 6F C9 62 F6 12 91 D1 CC
 71 9F 18 20 12 5D EB 8A D0 6E B0 26 39 EF 8B A8
 6B 8B 06 C9 D3 B2 27 E2 7E CB CA 45 52 97 18 93
 F1 C2 69 52 1A DE AD 00 D4 A0 35 F3 B0 E9 A3 C5
 C4 AF 88 13 8F A7 6C A4 B5 55 0F 4C A2 75 8B 3C
 21 01 D3 9A 54 92 5F 9A CB 69 D1 E7 6B 94 5B 35
 27 82 29 33 BE 76 74 4A 46 89 0A E6 B7 B6 C8 38
 47 FB A1 36 FE 13 BC 12 40 61 21 9B 0C 1E 90 25
 18 58 31 47 29 96 AF A3 36 EA A6 40 5B 5F 30 1F
 A3 42 16 AC 09 57 E1 8F AF 53 BA E2 51 B7 E4 D1
 76 7E BF C9 69 7A 7F 84 19 46 FB 64 1A D5 73 82
 28 AA 48 C1 28 1C 48 CA 04 C2 DB 80 7A B7 94 7D
 99 91 08 DA 43 7A 90 18 63 1D CE F0 CE C6 28 C8
 79 43 89 D2 D2 AB 72 B5 5B 48 3D D2 28 02 F3 D0
 79 5A 99 B0 2D 91 01 10 E5 98 0A 97 2A 80 28 DF
 C6 B8 02 DE BB F4 F0 18 22 91 1F 84 E3 17 4A 21
 FC 96 FA 85 94 87 8D 8D F8 66 B3 8A D6 E2 9F 3F
 11 68 30 2F C0 3E 49 02 E6 49 2C AA 25 71 A4 45
 68 31 9B F5 17 2C 9C BB 06 CB 32 61 9B B5 A2 18
 10 8B 2E BD CD 76 11 7A FC 16 91 73 57 D3 09 E8
 FA 41 06 B3 35 FD 5A 9B A4 91 54 C4 86 9B FC F8
 B2 77 A6 A6 7D 37 F8 AD 55 49 B3 9E 49 CF 3F EA
 4D 87 9F 05 A7 D6 E4 AE E2 76 B9 5B 32 27 CE 69
 01 14 D3 03 6D 13 84 48 8E 6C 12 78 EA 3E FF 51
 41 A0 F5 FA 3D 02 51 51 F0 84 F0 8A 58 6E 79 48
 2D FC 34 7A 8B C2 06 22 33 1E 88 CF BC D5 94 53
 3B 63 B1 0B 13 52 C7 15 5E 2B CC 1B 1E 66 31 8B
 55 69 67 E7 82 F9 F3 B2 EE BF A9 8C ED B0 A3 7D
 DF F0 96 C7 E0 AA 69 DA E7 32 AB 8D 52 75 E5 1F
 F8 59 AB E6 AD 75 C9 EF 04 77 FD 91 81 A6 58 F7
 45 80 EE 0C CA EC 2D B5 8D C9 D4 96 05 3C EC 3D
 7A 07 06 B2 62 71 05 07 0D 00 90 AE 1B A9 87 BF
 99 DA 1E BC 0B 9E 62 C5 24 D5 39 01 07 7F 52 34
 44 1D 14 96 F0 C1 A0 AE 76 DC BE BF 3F FB E9 98
 5A 8C 1D 3D ED CA 41 F3 07 B7 C7 AD 06 C5 14 16
 35 BC B8 F0 D8 47 D5 E5 A6 73 60 36 56 A7 ED 56
 15 D9 97 28 CB 75 C7 CD BB 79 60 4F 16 36 03 E5
 5D 61 E9 9D BD D3 40 64 D4 E0 4D D4 57 C9 A6 FE
 44 9A D0 C6 C4 39 56 D3 94 CD E2 EA 75 F3 00 48
 DC 46 AB E8 A1 F0 E2 0A E4 38 D0 A0 7D 97 A3 02
 98 07 DE 08 2E C8 B9 F5 D8 D1 CB AC C4 2D 60 BF
 EB 14 14 09 D9 05 88 96 36 6B C4 C0 4B A1 AC E6
 07 46 76 46 D1 3B 01 46 58 63 2F 73 4A 8E F8 59
 A7 CD 4C 81 FF A9 DE FA 43 CC 12 9A DB 0C 00 4A
 1B 01 CC 40 3E 8C 9B EA FF 30 79 67 82 6C 33 81
 2E 49 11 4A 1B 9B 25 0A 69 10 FB 37 33 C3 C4 2C
 2C 9E 6D 3D F1 F1 8E 5C E9 8B 60 EA 5A FB 79 BF
 05 5D 73 0D F6 E2 40 A3 36 91 3D 78 EC 1E 43 16
 AB F4 EF BC 58 93 6D 01 4F BD CC FC 38 24 CF A9
 F9 D7 1A 1A 93 D2 BA 31 08 22 06 6B 29 9F AD F4
 28 97 05 3F 32 6E B7 05 6A 13 A7 E5 EC 7A A0 BB
 F8 24 33 B5 5E 17 2E 92 C1 20 A9 64 68 9E F6 3C
 A6 A2 16 7D 2B 72 22 9B F0 B0 77 AB 03 76 D6 A6
 B4 94 C9 15 29 09 D1 8F 84 D9 8D 98 8C 72 A1 E1
 C0 F6 EC E4 D3 B7 D6 85 17 ED 64 F2 3A C5 35 42
 40 A7 3C D8 BD 67 44 3E 1A EC B8 14 0F 3D 8E 8F
 DC E4 57 71 74 59 64 3E 97 DD DC 1A A8 98 FF 5F
 F0 51 C7 7C 02 C0 35 AC C2 7A DC 07 1A D4 B2 CA
 87 43 25 CE 2F B6 3A 2D 00 26 F9 1A 1C B7 DB 17
 A2 E0 18 0D 13 CA A5 20 1D B4 E8 FA 91 D9 7F 1C
 E8 01 C7 B2 D0 FE A4 E8 BC 81 0E 5E BD F8 3D 94
 1A BA 21 5D 1E 79 30 C5 29 DF 52 68 21 20 C6 4A
 3E 44 85 F8 A5 71 BF 04 A5 07 11 B8 13 64 09 42
 03 38 13 25 B6 AC 5E 11 99 DA 17 13 B8 62 C4 FA
 03 B3 E6 4C 78 48 33 98 7E 06 DC C8 20 92 8D 21
 E2 9F 75 66 C4 37 8F 67 49 3B 8B 58 42 79 1E 37
 3A BB 99 F9 1C 6E 15 5F E9 FF EB 3B 17 BD 17 FF
 46 A6 EE 87 D1 5D BD 4F 6B DF F2 36 74 AC 05 0D
 3B E8 B8 18 06 4B 49 68 36 22 40 C8 5F 22 42 3E
 FF EE 7E 53 B4 D7 9A 3D 6B DA 92 9C DE 23 34 0A
 09 17 30 8D 24 05 0E 61 6B CF 75 85 E8 DC 03 BA
 FD 5D DC C6 44 75 79 E1 79 4C 04 BA CE 0A 8D 62
 84 D4 CE 67 6F 27 34 46 F9 53 65 D1 5A 2C 4D 5C
 55 9C 75 1E 8F EF A0 39 AA DC 2A 4B CC F0 7F 75
 A2 04 46 DE 42 08 00 03 14 D1 0E CC 04 91 36 4A
 CB F3 DC FA 3C 70 66 3F FF 1A 04 4C 0E 99 1D 63
 10 16 72 AF B7 B8 B5 10 09 9F 8E 37 1E DB 0F F1
 8F 34 83 46 55 9A B1 65 A3 33 4F FC 88 BA D6 CE
 8E 88 22 6E E8 0C 6B C5 C0 CF 3A 30 4E 89 85 56
 9D 74 AC 9F 72 C3 71 3D E7 95 35 23 1F 3F DD 14
 9B 87 53 D2 38 2A C8 D5 63 AD D5 B9 B8 11 2E A8
 37 5E E7 56 32 18 8A 9A 04 46 60 22 FB B1 36 77
 33 4B 7A CF 1D 83 66 F9 A5 8B BD 61 05 F3 B1 99
 EF 92 E5 86 48 D9 BA 71 64 CD 4F A3 74 C1 C4 B0
 75 B1 88 D1 61 E4 2D 35 29 24 95 3D D9 6B F2 23
 0A AE 3C 15 C9 6A 6D 0A 5E B6 F4 3F 86 E0 91 DE
 75 88 D0 7D 60 80 36 DE 27 66 F5 3E FB 9C 1E 0E
 3B 7B E5 B1 BC 08 5F 0D 13 DF D4 9A 74 11 F2 3F
 94 7E 87 50 60 EF EF 19 88 9B B0 AF 86 AF AE 2D
 AC F8 CB 32 09 20 D6 59 6E A4 71 BD 33 F4 9E 28
 62 DF 6D 4C 6C EB 3F 1B CB 88 15 24 B7 18 9B 6A
 DA DF 23 3A 15 85 90 2D D8 21 C9 BB 4A 33 BD 94
 8D 92 17 33 86 01 33 A3 7A 01 79 D7 FD C2 E5 19
 15 79 83 7A AE 38 1D 73 05 71 B1 35 63 FC 4F 47
 3F 4E 2A 0A 79 E2 72 7F B4 A2 EB 93 18 64 F2 8C
 B9 43 78 5C D5 79 56 32 0E F0 A7 B9 68 24 A9 92
 6B 67 5C 38 4D 73 E3 52 32 26 77 F1 32 DF 29 C5
 1E 15 A1 4C EE 10 72 CA 68 53 49 14 F3 D0 5A DC
 08 DC A9 D4 B5 32 2E 70 E0 BF A0 F0 19 07 8E 2D
 82 52 6B BD 7B B0 67 13 9F A3 F7 69 D7 AD 71 6A
 FD AF 0D F2 E6 F7 EC 84 E4 FF 20 89 DF 50 A5 67
 0F 92 5B B8 FF E4 68 5A 62 21 8D 6B EA AC 1D 60
 A9 5D 02 82 58 6C EE 4B 3E 18 01 AF 1F 23 D8 A0
 42 7E DA 9A 3D EF DA 65 3F 86 4A 5A 61 6E EF 73
 01 0C 7F 5A 8C 9E DF 34 1A A0 9A C4 B5 47 C9 3E
 DF 98 F3 4D 75 AA 9E C0 75 EB 10 AD F0 53 36 BE
 16 38 7D 2E 5A 0C 68 62 B3 6C E7 3A DE C7 A2 97
 98 52 23 1B 11 F2 85 AC F4 61 72 3D 50 A8 21 F7
 C6 EA 9B 7A 24 66 BF E4 69 24 82 D7 FE 48 5A 9F
 93 FF FA CE 1A 1D E9 B2 7A AB C0 02 8B 97 47 3B
 BF DF E9 E1 D2 C7 4A 8A A3 30 E0 86 76 0F AF 67
 9D 2F 43 D0 2C 83 5D 25 6C BF 7E A5 CD 58 CA 37
 AA 09 24 DA 59 20 72 46 6B 43 82 1A 6F 59 A6 2E
 55 22 95 08 AA C9 58 6B B1 9D 5D 8E 14 9C B9 40
 47 CE A0 3F 36 90 A0 62 58 A6 5A 4E 63 67 6F 01
 A8 05 22 40 A8 51 06 4D B3 1B 80 A7 60 74 A0 5F
 9C D7 29 C4 D9 89 7C 88 3A DB 0B EB 2E 8A 55 51
 5B F5 FC C8 9F C4 EC 67 77 69 9A E6 4F B2 91 D8
 34 6E CB A5 EF 2D 11 B2 B9 20 CB 7F C6 89 DE D0
 D7 50 DD 77 D6 15 82 8D A3 1A AB 67 D2 59 74 8D
 C7 33 E5 54 79 A8 56 1F 3B B9 C9 9A 2B CD 1A 81
 B4 55 52 60 47 3C 21 12 5B 48 7F B2 A5 5B 39 1F
 95 10 60 81 DA 83 A3 26 76 98 D2 55 08 9F 8B 27
 2B 50 12 1D 3D 81 FB 58 2A 56 85 2D A4 2D 47 67
 B0 0F A6 6A D1 31 39 91 3E A8 21 26 95 7D D0 C0
 E5 44 D9 18 55 68 8D 25 BF 76 30 56 4A 24 4A B9
 92 4D D1 FF 19 44 21 FB 16 6A 94 3E 5E 76 62 85
 69 28 97 FA DD 69 3E 8B 07 D8 36 3A C0 29 D1 27
 A4 B2 69 C2 B2 34 05 E8 53 8D 5C 99 60 3F 5D 35
 4A 25 88 AB 6A 71 98 92 B2 66 9D 35 FE E1 4F A8
 73 6B 40 5F 66 E8 0D 0D C8 39 3E BB F8 1A 1D 63
 A0 8E CE 6E DF 0C A8 DB E5 5C 1F F3 93 A1 8C 2F
 AC 76 0F 6F 82 72 B4 9D 5F F6 EA 33 58 4E AB F4
 5A DB 0E 8E 4B D7 09 F4 FE E1 5B AE 34 A3 D5 69
 4F E7 14 D5 BA 87 FA 45 A4 C9 DE 71 C2 2F F0 11
 88 17 2A 52 37 61 5A 4B 73 B2 72 79 53 9B 9D 5C
 1D 0A F3 9B 7C A2 E9 59 2B AA 49 14 4E 3D 82 89
 3C 57 58 F4 EA DC F8 0B 62 4E 4C 07 66 98 5D BB
 0E A1 24 06 65 0A 1B C7 BC AE B4 C7 4A 94 3B B8
 5F B6 DF CF 46 B7 0E A1 AB 31 92 65 66 99 C9 58
 38 39 EA 17 CE BE 08 8E D3 F3 AF 97 54 4E 63 13
 4F EF B9 42 7B 04 CC 6E 6A 13 77 68 8A 76 DD 1F
 E9 C9 D9 AC 90 01 3C FC D5 C7 10 5E 13 0F 8B 28
 B4 F4 ED F0 EC 59 27 33 D6 BC 36 F6 05 3E 07 76
 00 C5 40 E0 34 5B C0 81 AD 60 0E A9 7B 04 26 77
 25 55 D0 A1 B6 F7 66 91 F4 D3 EF E3 EA A3 27 FB
 47 E0 6E D8 C7 0C 9D F2 FF 67 E4 AB 73 06 06 08
 D1 82 52 DB ED 23 99 CC 42 96 12 BB B8 C7 F9 7D
 86 99 23 E9 5B DC 7E BC 57 F1 6F 91 BA 51 3E E7
 3B 8E CD DB A0 A4 9F 00 9E 74 D1 CB 07 14 12 74
 F4 25 17 B6 D6 9D 15 9D 01 A2 34 05 91 AF CF FF
 35 43 61 1B 44 0A F2 A3 18 DB 92 CC 9A 98 6A 22
 4E 71 37 12 83 F0 19 74 CF D4 8D 8B 80 71 11 5E
 97 40 27 C7 4E BC D9 C9 81 8E 97 30 9E 7E 96 81
 FF FA B7 E8 CF C6 AF 75 5B D4 22 82 CA F6 6C 83
 B5 E3 76 B5 D4 AF 4F B0 52 83 81 8F 00 A7 57 48
 B7 EC BD B5 06 B7 1B F7 F8 39 F8 C1 30 8F A0 CF
 E8 27 E4 25 4D DD F2 CA A5 86 7A 89 59 BF 49 6E
 80 94 72 32 1A C9 64 B7 83 71 3E D3 AB A5 CC 59
 6B 3D A2 C8 13 6D 3E F4 20 44 45 C9 E1 92 25 4B
 90 07 99 74 EC 7A 27 78 0C 92 29 C0 4E 7A 4C 2E
 7B 32 D0 0E F0 7C 8E C6 0D 71 A4 EA 71 0C 0D 78
 40 6B 96 0F B6 AE 9E 0B EF FD 82 6B 25 2E 5D 4A
 97 A3 FB 88 C2 68 EF 5C 67 5F F2 C0 5D 64 A8 03
 8F C2 B5 BE A9 19 44 63 08 BC F2 55 68 7E 5E 92
 EB FE 92 79 B2 2E DA 40 03 08 F7 C3 7A 51 1E DF
 37 33 28 E2 31 41 1D A0 66 9D 8C BF AC 19 6E A7
 8A 0E 9B 4A 63 D6 A9 02 AC C2 3D 7D DA BB D4 36
 D8 F2 7B 93 10 29 F8 3F B0 5C 60 A1 0E 31 DB C1
 42 9D AD 1A B9 26 24 84 77 93 47 AE A5 94 C9 D0
 57 49 EF C6 F0 D8 D0 9F AC AC 06 5F 9F 40 11 4A
 92 EF BD 38 9A 88 25 9E 78 E7 EC 06 53 7B 06 25
 C9 1C 06 E7 0F 70 6F 1F 1A 48 05 51 32 9F CA 51
 1D C5 88 D0 42 CB 86 CC 12 07 C8 8E 0B 51 BF FC
 9B B0 61 8D BC 87 BE 76 65 A2 CF 7D F5 DA AE A3
 DF AD A5 0B 9E 31 B3 01 D7 73 49 9C 6E F3 FC EB
 EA 89 F2 78 90 CA 72 AD EF 32 84 48 78 95 45 0D
 58 EC 42 C6 7C DF 4E 7F 71 DA 51 98 ED AC 9D 97
 A4 5B 0A 6E 97 B5 EA 9A 85 13 D2 73 F0 A7 A8 63
 EE D1 E1 61 38 BD 02 FE FF C3 28 1D B2 9E 6D 41
 58 9A BC C3 C4 27 60 BC FE 35 07 A9 F8 29 09 87
 CD 20 3F 84 C7 9E EF 84 19 B2 E5 AC 00 C4 C3 98
 FD D4 23 AF 82 03 04 C8 86 3D 50 84 7B CA 00 A7
 63 A7 22 4D C7 90 18 36 43 9C 39 88 3C D0 50 C5
 1A 50 1A E9 73 6F 51 86 C7 3A D5 B3 2E 70 83 36
 97 3F 0E D0 B6 50 95 7C 53 8A 98 FE 5B 40 79 7F
 3C 8C 56 79 23 89 31 81 26 39 0D 2B 68 DE F2 D2
 CE 78 A2 97 29 82 8A 00 1B 36 D3 3E E3 CA 61 28
 B0 96 DD C8 DA 49 78 45 26 C0 F7 D6 89 35 DA AB
 01 7F 12 85 7B E2 3A 63 04 CC 9F 97 85 8C 47 E2
 46 2C 57 07 72 C0 8E B8 9D 33 F7 00 48 F9 72 53
 C1 B8 66 D7 66 6E D2 3F F2 F8 F7 68 5A 90 20 99
 D0 FC 90 07 55 32 C7 D3 6A 38 5B B4 E9 3A C8 EF
 1C CD 6A A2 F0 D2 2F 05 4D E4 9E 4C 10 E2 62 5C
 24 68 EE E7 8E 68 BC 11 66 50 35 C8 A1 7C BC 54
 66 CB 8E 89 39 6E D3 0F 82 A4 CA E9 69 88 D7 CE
 71 B5 25 7A C3 E7 0F A6 C1 7E FB 33 D4 5B 4D B3
 1C ED 4E 04 58 96 0B 26 C2 EC B0 56 A8 73 3C 20
 6D B9 B3 C1 4B B9 B4 47 96 F5 4E 94 73 D9 9B 15
 60 13 D8 41 07 1C B7 F5 CB 69 52 C2 CE 22 C8 7E
 50 EE AA FF 19 D0 5C AD 54 57 E2 FB EB 42 DF 16
 EC 21 E3 6E 08 54 EB 94 C5 4C C5 CF D9 D6 0B D5
 5E 32 2F FE BF C1 5D 5C E0 B3 90 5A C6 E0 77 AE
 65 2F AD 7A DB 0B CF 32 5E DD EC FA 7D 1A 50 4B
 F7 86 92 60 FE 22 A5 62 FD 09 8F 26 0F C9 8F 52
 CA D5 38 09 65 23 CE D4 C2 44 21 7D 22 EF 05 2D
 70 F3 92 23 44 14 FA DC BE 2A 68 EC 02 8E D4 B1
 A5 70 7D A5 33 40 1F 86 76 81 E4 1E 53 58 B2 02
 EF 69 64 E3 C1 34 72 05 FC 7E 50 4F 50 7B 29 00
 B8 91 AA 8C E7 F2 4A B6 26 E6 B1 3B 8B 4D 4A 80
 19 F4 E4 65 A1 87 91 99 A4 4B 28 86 B7 23 85 0E
 2E 53 96 DF 8C 8F CF 65 D7 08 9E A8 30 0B BE 72
 18 79 47 03 C8 65 7E 4B 65 33 3E FB 0A 35 3A 1D
 8B 72 CD 53 F0 03 6A 53 55 5E CD BF 63 A6 63 3C
 D2 BC 64 1C 04 F9 E5 35 4F 04 B9 1C 8D 2F 20 B8
 A0 8E DD DF E8 AF FC 82 27 B2 FF 72 98 4C E0 39
 59 1B 18 83 5C BA 44 19 B3 54 8D 55 34 25 DD E6
 96 4E FD 04 8F 28 BF 79 AF 22 78 09 E9 E9 D2 2D
 1E 9F 98 9B 9A 71 BD C9 5C D8 FA 32 16 85 F1 BF
 A9 D4 49 85 17 4E EA 92 8F 73 94 FC 09 8C B0 AF
 67 A6 C9 1E 88 F6 C6 E4 9B 6F 2A 21 6E 82 35 8E
 AC 97 D1 98 D0 00 B8 46 70 81 73 49 74 B8 D4 1B
 9F 40 2C C0 57 19 2F 53 24 07 5E 35 C3 90 EB 81
 A5 E4 7B AA A9 F1 C0 4D 0F CE 17 4C FB 16 84 D2
 3F 28 3A 76 22 B6 5E E2 95 BF 63 D6 50 89 CC 6E
 15 71 F3 90 8A 24 A6 8A A9 F2 D1 D5 58 55 19 78
 1B 45 A1 8C 19 94 3C 8A C2 36 D2 92 1A 9B DB 2D
 F8 36 95 BF 20 66 1D E9 63 86 C5 8C 95 99 F1 EC
 45 70 33 CB 3A 5E 85 EF 1A CA 64 EA E7 69 A1 70
 5C 12 17 FB 52 47 5E 89 A6 66 B4 A9 BC 04 3C 9D
 E7 FE 1C 16 7D 03 20 79 FD 21 34 F4 84 2D 39 DD
 AB 13 98 2F 41 54 B4 6F 1D 61 09 C6 58 8A 00 46
 85 4B 1E 44 DC 01 DF 23 D2 5F 3E 00 D3 F5 C9 5E
 53 2B 34 8B B5 90 4B D4 EE 00 5C EB 94 33 56 1D
 8A 84 AA BF 6E 1D 06 52 C3 85 D0 2C BE 7C 01 76
 58 77 BC D1 5A 9F 50 2E 0B 70 AE 9E 06 55 06 75
 33 08 C4 21 43 B3 8F C3 5E DC 6E 26 D5 1C 7A 8C
 FE 6C 77 04 3D B1 BA F3 E1 84 36 12 11 28 3D BB
 55 5B DB E4 68 00 E5 9A FE 30 BB D8 F0 E8 3D 1A
 22 71 CB B8 9A EF F0 5E 9A CC 7C CF BF A3 7E 44
 73 F5 47 34 72 1C 10 97 9A 6A 32 50 5E 5B FF D6
 01 EE F7 AE 12 1D EC 80 86 9B D6 29 7B 74 B9 BE
 BF 40 E1 41 A0 B9 A8 F2 67 1D 56 1B D2 F7 88 92
 6E 35 AD D8 3E EE FF F8 2C 1C 50 6A 74 87 E1 9D
 5E 8E 42 14 6E 9A 8F 91 B7 BB A2 13 23 36 79 F0
 02 51 A3 3E 62 3E 84 70 A9 4C 81 3B 00 1E 77 E9
 F9 3A 1A EC D7 F2 B2 45 76 B0 CB 23 38 89 91 C0
 3E B5 C1 1C 15 36 97 FF C3 A3 23 64 DB CA 01 A2
 03 14 FF 90 B3 D7 57 8B 30 93 85 25 01 D8 50 64
 95 C1 43 39 79 0F 2C BD 6B AF BD F9 00 AF 80 74
 D8 1F AC DC 02 96 18 48 17 6E D8 8E FC 39 9B 59
 D8 6D E6 5C 30 8F AF 8E 22 69 45 EA E3 A4 81 25
 D6 7C 43 92 09 5D 22 2D D7 CA A4 89 24 C2 EC 50
 BA 2E FA 07 7D BD 26 E5 16 F1 0A 2F 55 D2 5C 8B
 38 E2 CD 95 3F D0 E2 18 41 ED 7E EE B5 6C E0 57
 A6 EA 97 85 9F 61 22 5A C6 46 C1 A3 B2 F4 5D 01
 29 A4 68 FE 91 60 E2 19 93 AB E8 F1 DF 25 29 8C
 36 23 AF 6E 9A 3C 1F 99 D7 52 48 2B A3 9A D5 46
 85 94 CB 9E 48 86 79 71 46 CE CE 2E 86 36 09 AA
 8D 09 96 8E 84 93 AA 87 D7 0F 15 6B 7D AA 9A FB
 8E 6C C5 A2 C1 82 D0 5D B6 2B 7A 72 34 D1 B4 4F
 B7 83 95 70 4F A0 9A 27 AA 8F 9D D5 C1 16 B3 11
 D3 64 6A 04 F3 E3 B9 D6 ED 86 11 63 B0 23 9F 98
 A2 15 FE F5 C3 98 2F B7 0B 99 F3 2D 69 F8 42 89
 73 C6 02 95 83 E5 AC 9D A7 7C 75 F5 3F F4 8B 46
 7B A9 58 CD A6 18 B5 04 50 6D 56 59 33 6F DC 9E
 B8 B6 EC 2E 8D B0 B7 1E 4D FE 50 59 37 F8 1F A6
 B1 2C 2A 07 24 8F 21 C9 63 EC 79 33 BD EC A2 20
 96 33 6A DA 38 3A EA 43 AE CE 55 5D E2 02 E9 60
 C6 A9 C1 39 FB 99 C7 C4 2F 7B 20 42 D6 0E 64 35
 A0 CF 5A 2C 4B AA DC 56 F3 5F A3 22 31 83 12 7F
 43 DF 4A 94 DD 73 E0 85 D2 E6 5B A2 2C C3 A1 32
 9F 64 C1 BA A9 50 59 57 D2 D3 1B 08 D6 12 A0 D2
 C7 96 F8 D6 EC 00 63 70 D4 2E 63 42 4F 42 94 6E
 21 70 80 88 62 56 8A 88 D8 7F 6B 6E 11 B0 53 94
 09 8A 07 37 F7 CC F1 0B 84 69 C1 D3 03 62 D4 8B
 B6 2F 42 48 CE D2 27 7C F4 42 55 60 D0 67 CC 77
 6C 01 6D D5 B2 DC 05 E8 2C D1 2E 45 3E F2 29 CA
 CD A6 19 E0 1C 29 62 49 C8 C4 41 E7 6D 6E CF 59
 AE 59 A0 BA 72 E8 32 E0 15 02 52 ED F1 83 2C 60
 19 B4 CC AD CF 8D 06 40 EA 8F 18 AC 42 44 46 07
 B1 D2 06 04 6B 66 15 A8 98 02 4E F6 1B D7 01 C9
 A8 61 AD 52 18 24 66 FC 3C 65 A0 1D F1 55 5A 12
 CC 57 12 C6 21 6A 16 D0 4C 77 7D 07 63 85 10 FA
 19 32 A3 45 26 BB CA 7A 57 CD 6C 5C 29 1D 9C 73
 04 F4 9F 53 93 88 90 46 3E 89 C3 C4 47 A5 B6 33
 C4 79 95 E2 D4 0A E7 7D 40 C1 EC AA DE BF 50 94
 6C 4A D0 8D FC CE D1 7C F0 98 E3 0D EE 5F 39 65
 72 52 F0 C8 5C 0A 06 40 43 9C A6 62 2C 35 E7 60
 68 35 1E C3 76 C9 63 E2 51 15 0F 44 08 3B 2E 98
 53 15 0E CB 3F 69 82 0E 52 41 B0 98 8D B5 33 21
 13 43 CA B4 42 1D A7 19 15 A0 67 18 89 9F 5C 5C
 EF 57 ED 22 57 53 E0 7C 8B 77 C4 B3 B6 95 C5 6E
 F0 25 D7 D6 E1 76 83 E4 F0 B5 3E EB 5F 23 61 31
 39 17 E3 C6 8C 78 FC E5 55 4F FC 16 9B 3A 0E 16
 67 3E D7 0A C8 CC 27 3E 06 80 36 53 6A 8C FE 4D
 8A F9 47 F0 5B CE B0 64 81 5D C5 63 7F F8 BD 26
 0B 29 8C C1 DE 1F EF E7 63 19 E5 A4 D2 6B 7A 90
 D1 7E 6A 8D 48 DC 44 91 35 C9 DB DE 54 FD BA 5E
 14 33 97 28 75 79 6C EB 6E 91 1C CD 11 4B 3D A0
 88 09 78 47 6E C5 C3 C2 A5 17 E0 E8 83 C1 35 0D
 BA 7D CE A5 BB 61 F7 54 2F 15 74 B0 71 29 64 5C
 4B 68 65 C6 67 C3 94 13 5A 5C A9 BE FA 0F 29 DF
 A0 4D 41 28 21 39 B8 DC 5E 3D B5 4C 97 8B 71 78
 20 82 5A 13 00 FB 47 BE 07 63 B0 94 33 A9 7E 06
 5B C5 EA 73 CB 7E 7A C4 87 A9 B3 81 64 60 E0 14
 0C 59 0F 1F 4D 10 C9 CE 19 0F 0B 99 67 7A FC 4C
 7B D3 FB BB 48 18 76 34 C2 71 4A F8 12 98 1B DC
 9F AB 40 1B 04 C0 53 67 F3 6C 05 94 C2 B7 D3 43
 9A 5F 4C 00 BE C1 A4 90 4C 53 4D 2D A9 FD CB BA
 C1 89 AE 9B 81 3B F5 65 8D F2 14 DB 93 2C 7D 98
 FC 97 BB 4C E5 34 3B 1B E6 E5 52 3A 2C 95 4B 15
 9F 11 35 5A E8 21 DC 00 FE C9 03 AA 52 55 11 6E
 4D 8E 46 7E 29 D4 38 6A B2 E3 8D EF CA CB 3E 9F
 62 5A 3A 72 2C 2E 07 14 80 7F 9A 44 88 39 33 E6
 64 E0 E4 46 6E 2F 30 53 74 E1 F9 72 E4 60 09 79
 EF 2F 06 06 33 A6 39 2A D9 68 A8 47 9E 2E 77 40
 9C E5 59 D5 DD F8 47 2B BF 56 6D D9 66 2F 24 52
 DF D6 55 FE 57 9C FA 88 25 45 99 55 49 4C 82 C7
 2B B2 43 45 52 A9 2C 47 22 8F 03 3E 21 5F 16 EB
 8A 55 71 8C 81 FD 52 81 05 7C 18 E2 16 AC 1E C9
 50 13 A2 BE 3B 00 C6 01 42 52 09 95 F0 4F 80 80
 B8 14 C6 C7 84 B0 7C 36 98 B4 AE 79 68 29 DD 14
 86 E5 81 64 FB 0F AB 80 0D 2B B5 42 63 22 A7 48
 A8 B2 79 2A 0D A8 E1 79 CE D7 CF 2C B1 98 CB BC
 37 74 7E 3E E6 77 CE FD C7 47 21 E6 B8 10 5B A6
 D0 4D 75 19 F7 CB 75 2B 16 6A 1B A6 62 0B 2A 35
 7D 48 C5 90 AD 31 49 44 8C 44 12 6B 8B E1 E1 7E
 50 F1 48 58 76 3A F1 99 5F 6A DD B2 C4 B4 E5 54
 98 E5 26 C8 55 22 7F A3 2D FF B3 8E FD 85 25 D0
 11 93 C8 C6 63 A8 8A EF 3F 6B 0D 96 96 B7 3B FA
 54 F5 3E FF D3 C1 DD D3 35 06 88 0C 44 ED 30 9F
 F0 37 34 A0 08 6A F3 8B CE 47 DC F1 96 A8 E0 E2
 6E D3 BA EE DD 05 4C 66 1E EC A8 6C E4 5F 51 E1
 CA 74 62 D5 83 09 15 20 E0 96 D0 D9 78 F1 9F D8
 4C 63 AE 33 E9 58 E1 21 B3 A5 A6 EB 2C 81 C3 86
 F6 71 54 54 D8 AE F7 32 F9 9D EA 6E E7 50 C5 0D
 D5 29 15 5A 99 B2 E2 F7 4E A8 77 90 F7 1E 92 D8
 B0 2F 8E 48 1E 4C B8 68 77 96 A6 70 6C E9 21 D7
 32 65 56 AB BC 98 62 06 13 01 14 52 CF 36 60 45
 1A 30 93 C7 58 FE 87 7F 75 31 DB 32 2A F2 4D E5
 A1 AA D5 79 BC 4B A2 B9 BF 7F 19 D2 82 9C 48 B0
 FD EB 59 F5 F5 38 0D 71 EF AD AA AD A9 A2 D8 4F
 67 AD 45 9A 34 46 2A 31 44 8E 32 48 02 01 47 2A
 9F 1E 95 52 79 8B 75 DF EF 72 1C 94 77 72 C9 B8
 45 E8 18 51 99 A4 14 2D 6B 53 E1 92 B1 48 2C FF
 DF 06 5B 5D B3 04 EF AC E2 B5 99 18 9A 92 73 F2
 E2 CC 50 10 40 61 D6 A5 CD 04 0E A4 92 AD 85 AD
 17 81 71 73 61 7F 54 A7 A9 32 50 63 7C 9E AE 08
 24 C0 9B C2 23 54 7B B6 4B C3 E5 60 95 47 8F FB
 92 CE B4 18 44 40 B8 B6 A8 BE 97 A6 6F CE B5 34
 33 3B EE 2E 2B B4 6D 39 6A B1 BD 9E CD 9A 76 B6
 16 80 F6 C9 F0 A7 52 4A 8B B7 22 0C DF 9A 84 5C
 EF 50 C4 85 38 AE 30 54 81 9B E0 AF 9A 92 5A 50
 F3 1C D8 F7 40 6F E9 A2 FF B0 4F 0C 58 C2 49 9D
 82 D9 E9 34 88 D3 68 E8 A3 F3 8D 8D AE 52 10 B4
 9C A0 09 CD 2D E3 73 66 01 EC 50 2A 9C C4 1C BB
* End 4197662068 396265903