* LTspice Encrypted File
* 
* This encrypted file has been supplied by a 3rd
* party vendor that does not wish to publicize
* the technology used to implement this library.
* 
* Permission is granted to use this file for
* simulations but not to reverse engineer its
* contents.
* 
* Begin:
 92 1F 0E B7 7C 6D 25 5B A4 F5 D6 1C 0C 5A 74 F5
 6A 9C AB EE 1C 54 8C 99 70 65 85 47 54 C4 2D 40
 07 01 48 05 62 FD 3D D5 FC 86 49 59 16 91 C1 42
 B3 6F 7B 1A 5A 15 CF A3 8C 97 FC 22 3F 30 91 B3
 1C 96 58 12 A5 E5 5F 89 43 18 01 23 B1 DD 76 D4
 38 D2 3E 44 C6 57 53 1F B2 B6 4E CD 76 8E 53 D6
 DC E0 E6 A8 B1 C8 AB 07 78 EF 4E CB D6 BA 88 EC
 D3 F4 9D 28 FC 81 DC 1E 06 9C 62 6C BA 7C BD 32
 57 1F EB 5A EB E9 1D 9F 64 39 45 CC E1 7B 69 38
 12 CD F9 A0 5E 12 7D E3 3D 3A 99 F7 20 7B 02 94
 29 DB 47 BC 8E 37 EA 83 C6 ED C0 0E FB 99 51 2A
 5B 14 57 0B 53 26 21 EB 48 FC C4 43 D9 52 D0 A2
 7A FD E5 95 0B 8A 47 11 4D 05 59 20 15 E3 77 0A
 EE 89 1D 3E 83 5D 4F 07 20 95 FD 8B E5 9A 81 26
 74 6E 25 D0 0E 2D 28 DA 9B 33 E1 4A D0 DE 77 B1
 E7 A6 4E E1 96 7C 1B 25 DD 16 1C 97 0C 48 34 07
 4A 92 50 18 A1 FE 40 F5 54 30 B6 C9 7F 82 37 93
 9F 49 CA 73 95 24 51 5C E1 88 3A 62 DD DE E2 9D
 5F AE D7 EC C4 2F BD 86 55 54 97 BD 4C 41 BA 24
 F3 C4 A4 2B 8D 2D E8 8D 34 56 31 A9 46 4B 7E 6A
 32 56 CF 20 2F 6F 5B 3F B0 A0 42 41 4D 56 06 49
 06 09 AC 88 11 71 83 0A F1 D5 D7 D8 0C 9A 49 9B
 02 05 8D E7 8C EC 5E B3 F6 CA AB BD 6A 4F B4 97
 30 45 84 E6 91 F2 B7 E5 A9 E3 D0 58 04 FC DB 17
 B1 8A 00 70 50 32 D6 09 4F 7A 13 86 A8 6C 74 DD
 6B 8F C9 65 27 26 CF FD 7B D7 C0 58 A8 13 C1 5B
 58 71 BE 93 5E FC 2D 43 1A C9 FA E8 12 7E B2 C7
 EC C8 82 C5 2F 0E EA 51 E9 C2 FE B5 63 D8 68 27
 CA 5E EA E2 AC 8E BD FB 47 20 96 1F 5C 7B 8F 70
 27 52 71 5E F5 0F 8B AC 05 78 AE FE C5 BC A3 F0
 3A F5 11 D9 25 59 45 6C BE D5 15 E0 41 F4 AC AD
 AF CE F9 B0 40 ED 58 DA DD DE 13 8C 11 BE DB 8C
 EB FD 03 7B 67 B4 9B DF 27 27 FB 1C 01 10 BB E3
 6C E1 CC 2E A0 1F C5 A7 7C 36 FC 57 3B 41 55 F3
 A3 D8 00 54 99 56 4A DF BB 07 9C EB 35 40 8F CF
 0C A2 0A D2 18 16 56 76 95 8F E6 1D EF 2D 9A FC
 3D 86 8B 87 42 3F A3 4A 81 9E 8A 4E 7B 99 11 96
 BD 0E B8 AC E4 98 19 21 66 AD 78 CC 7B 04 DB AD
 FC F8 C4 0A D1 2B 8A 69 19 59 64 AE 9F D9 A2 C2
 A0 5E AC 65 34 24 98 74 FA 12 6F F3 90 96 F1 35
 8F EA 04 4E 56 48 6E 47 41 A3 A7 5C 22 64 A1 CE
 C4 FA 5E 8D 30 F6 37 D9 F2 F9 05 5B C8 E6 C8 CC
 CC 83 29 19 20 4D 73 97 C8 6D BB 20 F7 A2 BF 8B
 E4 6E E6 50 85 C5 9D 78 5F C8 47 1F 9F 08 B6 48
 CE F8 85 B8 12 B8 49 65 88 22 02 37 E3 A4 61 F6
 C9 9F CC E3 FF 05 19 F3 74 91 FC 2B 24 BE 15 58
 A6 6F 70 B3 5D 67 3C C9 02 99 7C 67 6F 49 27 8B
 1A 7A B2 F8 B6 30 C4 D6 36 5D D3 C0 87 98 27 17
 DA F5 CF 60 47 D1 DF 6C 8C 60 CB 9F 46 13 90 CC
 FC F7 1E B6 F0 4D B1 34 C5 A3 89 E7 D1 D5 85 B0
 5D F8 D9 BC 85 5C 00 E1 AB 41 B2 08 84 C9 5D 88
 94 0F 81 1B 50 6E C7 FB 01 EA 20 A8 0E E4 11 64
 94 0C 9E 45 32 59 FC 23 1F BE 47 BB F2 0F A6 32
 96 48 96 5E 9D 39 81 64 71 83 88 6C D1 A1 8B 72
 E2 14 3E 0C 55 DE EF AE 28 15 80 21 56 49 94 D9
 46 F0 02 A5 44 97 DD 07 A0 20 5B 98 54 FC D3 A8
 C6 47 07 3C CF 37 DA D3 28 AE 95 9B 25 5F 32 A3
 9D 7B 22 64 37 E2 AE 4F 26 BF 55 47 4D DB DA 6C
 83 5D F7 CF 5D 66 F9 BD CB 07 EC 1A D5 CE 35 AE
 7C 95 35 42 5E 87 F0 3C 7F 74 00 83 C8 29 3B B3
 E2 4E 63 E5 2E C4 56 F8 7F 92 67 66 7A F1 3D A5
 CE 1B 9D 90 F3 29 76 5A CB 21 E5 70 F0 FF 59 51
 1F 1C BB A7 43 DD 82 12 30 E6 05 17 11 31 B2 53
 70 2F 41 16 E0 97 D6 3C 76 24 A6 A4 43 9B EB 7C
 56 D0 12 CC EB AE 68 3B BE D8 D2 F2 2D 14 AB AA
 24 A6 83 8F AC 35 96 36 C3 4D FE 60 F5 34 FC C7
 BD 82 64 9E BC 1B B3 26 FB 65 AC 63 E9 DE E4 D3
 43 65 94 1B 94 AC C9 B7 0D 55 33 2D 4F C4 73 AD
 10 91 28 49 3D 39 C7 AA 8A 2B 2E 6E 19 5D A4 CC
 06 C8 E2 2B 47 C6 23 D2 29 91 18 46 68 73 CA A7
 BE 40 AD 80 60 11 07 59 61 EF 2E 86 9D 7B B0 EC
 8F E4 9E 8F 40 9E 5A 79 30 12 FF 63 FD 7D BA 0E
 E7 39 19 A5 A1 29 1F 07 15 A2 F8 D1 72 DD FF E9
 2B B7 82 C5 3C 42 45 EA 25 99 BA 90 B9 AB E8 21
 B5 54 90 4F 60 9D 32 18 FA 7D D7 4C A1 19 38 C4
 93 75 AA 62 26 D5 4C 14 3F 43 5A 91 76 BD F0 7F
 C4 2B AE 84 1A 06 31 B2 4C D2 C5 88 AE CF 8E DE
 88 D8 4E 74 43 0F E4 BB B3 F5 53 65 A3 B3 45 4D
 ED 1D 77 03 00 AC A4 DF AC 88 7F 05 1E 9A 49 D5
 C5 B3 CD 80 84 3A 61 1D 55 7A B2 3E AE 3A 07 DC
 7C 38 DB 5C D4 BF EB BE 1D F4 BB B0 2B 89 61 52
 97 EA B7 CA 4E FC C2 FA AE 5E 64 02 9D D9 C2 8B
 D9 AF 58 69 EB B2 4E 64 6C 79 66 35 64 F5 A0 A2
 29 8C 4E 98 0C 15 71 D1 CA 8B 2F B8 70 A9 FB FB
 54 FF EC 86 63 81 EF 31 37 D5 39 50 45 44 20 FA
 1B 36 73 17 65 02 EA 83 91 5D 5E 13 FA 57 E1 92
 0C 8F EF 21 9E 69 B9 B0 01 E9 CF DC 28 B4 13 AF
 A3 4F B5 2B 6D 37 F5 D5 5E 9A 34 1A 08 E1 81 32
 22 D1 66 E3 48 A5 1E D9 30 3D 8B 29 E0 EB 9C 4C
 01 B7 07 D6 35 FE E9 E9 6B 02 51 A9 F4 07 9F 32
 F7 66 32 7A CC C1 B1 EB 1A FD B9 FA 81 B9 94 EC
 A5 87 EA 0F A6 17 49 2B FB 83 7F 3E 7E 00 AC 4F
 F9 87 66 4F 31 68 AA 89 37 1E 44 D7 C7 04 B7 9B
 3F EA F6 D2 88 F5 D6 0F B5 E6 DD 0F BC 17 16 7D
 AF 83 B7 FE E2 E6 82 4B 9A 80 E4 05 D6 B7 29 BA
 0C 43 5D E5 2E 51 6F FC 17 65 C5 18 29 9A B3 F1
 3D EC A2 BE 9D C3 07 EE 7D 39 2D D3 E2 68 03 91
 DF 3A F9 98 72 D6 A4 5E C5 FC 53 45 2A A1 9D 22
 1D 16 FA F1 33 DC 26 DA CD 7C B2 03 38 CF 2B 43
 73 D3 8B B9 B6 A5 1F 4A 63 37 A3 D8 7F 64 EE 6B
 62 DF E2 A7 D6 13 48 55 F0 04 AB 8B CF 22 8E 0C
 6B 5B CB 0A 71 5A 8A 4F F4 C8 C7 BD 9D DE 13 84
 FE 25 DB 91 66 4D 9E 26 EC F9 D9 7E B8 DF B7 63
 B3 C9 56 72 80 70 39 61 C6 F5 8D 44 5F 04 06 7B
 89 58 F9 46 7C B9 FC CD 56 F2 DB 32 B8 B1 B2 22
 1A CD 54 04 1E C1 A9 68 14 7B 69 58 C5 07 D9 55
 3C 03 A1 5B AF 1A A5 FB 02 BB A0 99 90 D5 D8 F7
 8F D0 53 38 A7 80 8F 6C AD F2 32 46 41 70 90 86
 C6 83 C9 21 D7 12 8F EB 78 7F 41 22 EE B9 D3 25
 BA 06 B4 83 9C 7E 21 1A 74 80 1B 08 AE 55 F1 13
 C7 2B 82 26 FF 4A 4C 11 22 F7 0B 13 E1 CA 38 F3
 DD B9 F1 4E 0D 53 C8 D4 74 42 F3 FF 9E B6 39 79
 87 9D 41 AD F1 F7 CC A5 4F FD E0 DE ED 22 97 20
 73 F6 72 93 CA 2B 83 6E C1 85 23 14 BF 1D C9 8C
 BA DE 0E 7A C6 13 51 5F F6 B6 CF EC 28 3C FF 85
 9B 97 42 01 0A 99 DA 56 0C 9E 31 CE EE 6F 5D DA
 65 12 FB 51 04 0F 45 F3 29 86 27 2A C1 B6 65 39
 E9 76 00 A4 12 1F 2E 47 70 A5 FD 3C BF D4 16 36
 6D 5F 18 05 2B 78 2A 5D 3D 74 F2 2B D0 04 46 EC
 5E 1F 54 21 65 50 52 AF 3D 06 F7 6D 7F 79 7A 5C
 31 04 B5 8E 45 6A 3B 67 CA 9A A4 7F 6C C1 5E 71
 C9 98 AE BD 91 98 A6 B4 6A 0B 43 F0 B5 0C 7F 8F
 48 1B 48 31 89 3D 69 F9 43 0D 47 70 21 F5 40 FD
 07 2E 66 83 9D 09 46 9A A5 E6 BA 32 5C 61 06 C2
 F6 2F FD 47 93 01 65 FB C0 9D 84 22 1C B0 7B BA
 01 52 F7 36 40 EE 41 B4 6D 2A E0 A4 4F 4C A6 DF
 F7 6F 72 3F 0E 4B A7 2D FA 5A C4 A9 E0 05 71 E6
 74 AA 00 64 7B DD 9F D3 35 42 B5 0B BA 36 4E F7
 36 31 BF 1C 12 71 75 B1 6F 4B 08 7C 83 BA 64 B9
 06 DE DF 2E B4 C5 47 32 A4 FF 6A B3 61 79 84 AE
 2F 10 C4 D8 D3 02 D5 AF 1D 26 EE 78 93 7E A3 11
 16 47 44 89 96 9C F3 57 82 BE 14 FB A3 D9 C1 4D
 60 7D 9A EF C5 F0 3A CC 52 4A A6 2F 97 30 02 B8
 B2 27 FB 52 2F DF 82 13 7F 8B 41 61 BD 91 75 08
 03 46 3D 72 CB BB DD F6 F3 10 99 00 AA 08 7B 98
 EB 3C A5 15 B8 0A D7 D7 AF A7 87 A5 49 CA 4D 3D
 0A A9 E7 FF E5 4A 22 0A 95 0D 30 93 2F 5C 60 3C
 D0 6B E5 D2 C4 D1 0E D3 F6 91 F8 30 3F 5A A5 A2
 95 BB 5B CD 22 81 D5 F8 02 68 24 CF 6B 56 77 09
 0C 7D 0C FC EC B8 68 87 D6 3C AC 36 3C E6 19 5A
 A6 62 7B 08 13 C0 C1 CE 3E FB AA 73 24 D3 CC 89
 49 13 7B 4C B6 7B 4C FC 77 5A B1 79 19 95 59 C2
 24 01 E8 4C E7 0E 71 D7 B7 DD 81 B1 34 9A 2C 37
 57 8A F1 28 71 5B E2 B4 E1 98 11 44 66 9A B9 45
 6E 94 32 55 43 A3 33 49 B1 A9 EF 7A A4 CA D1 04
 3F B4 A3 4E E1 CE EF 09 6F 78 69 5D 84 2D E6 76
 F5 F6 9A E1 A0 6B 4F 93 93 20 F4 B0 C1 41 B7 8A
 70 97 AE F8 8C 42 6A 76 7B AD 2F 96 EF C3 03 1A
 72 F0 81 C4 67 83 59 BB 0D 60 05 F7 E3 CE C3 87
 5B 7C 58 9E 5C 33 53 E0 F8 8A B1 12 00 9A AE 5B
 8D 37 0C 11 45 8E 26 47 90 38 89 87 71 38 54 44
 7B 42 29 03 74 6D 5D 60 C6 8B 4E B8 27 41 50 EF
 C5 A3 53 2F 2F 9C 1D 42 25 35 71 43 7E 21 52 B3
 AA 34 22 4A 3A DB 05 CF E6 C3 13 39 7F AE AF 1C
 15 91 81 CA 79 66 FB 9C 2C 9E 45 F6 7C DE 71 AF
 BC F7 10 13 22 BA D7 A2 6B 9C BE 16 25 AB BF 38
 C9 57 42 BB 84 77 C3 5F 42 F9 5C C4 0F 43 AB 54
 4B 8E 64 18 5A 40 F3 54 68 6A B8 37 77 C4 42 41
 E4 E4 5B 4D FB 55 AA E2 11 B7 FD 01 53 CC AB 8F
 C2 C4 0C BD E5 25 9C E4 0F 77 61 C2 A2 83 E0 F4
 C5 0D F2 74 8C FF 90 D8 79 78 AF 77 05 7C 65 FF
 12 15 7F AD 75 A4 DC D1 14 60 32 8E B3 03 F9 ED
 FD BA BF 85 CF 78 C8 4E 22 FE 7B 5B B8 B1 9A BA
 94 A6 62 8E FE 28 56 CA 56 47 EC 9F DC 09 D1 41
 54 4D 3C 4D D9 23 AD 56 B9 B1 9E EB 8A AC 07 4D
 9B AC F4 45 96 BE 1C 4D 30 8B 25 A5 79 FB 3E F1
 9F 61 F7 FE 91 0C 55 30 A1 36 A4 C1 81 BE 73 8B
 AC 93 8D 93 22 0C B0 67 9C 43 53 80 B5 92 58 B4
 A2 FB 68 63 E3 2F 80 B5 C9 F7 AE B4 3A 83 9F B5
 32 E8 53 19 F7 C5 CF 78 7E 3B BF 5E FC C4 A2 9C
 61 95 AA 94 44 95 77 00 E8 3F DF B3 29 0F 55 BB
 26 D6 40 47 EC 0B C0 B9 5A 92 F6 E7 61 A6 E7 80
 5B BB D7 14 7A 9B 77 FE E5 43 F0 FA FD 3F D0 93
 2F 97 5B 40 FF 46 11 65 E9 05 DF 87 30 F5 75 07
 75 1C A9 DF 46 D0 4C 85 0E E1 BB FE 0A 85 19 C9
 FC 40 17 64 C6 F0 40 2A 2A 85 FC 21 9D D2 96 F4
 6C 7E 4D 23 F5 29 67 4F 86 F0 D7 0E B1 B9 41 93
 F4 32 42 FD 63 62 17 6B 79 55 25 45 82 49 B9 D9
 17 3F 69 FF 4C 93 94 C8 B7 56 A8 05 32 4A D1 5A
 55 98 57 52 B3 DD 36 A3 D1 91 15 D7 D9 29 04 16
 B5 58 03 B7 92 37 36 9B 60 9C 6C 33 B2 A8 0E AC
 28 71 97 23 EC 68 57 44 7D 25 6D CF 8E 99 E1 A8
 04 41 7A B1 02 91 E5 7C 6B 97 21 09 BC 86 AC B2
 70 76 B5 E4 56 21 E9 F4 8A 76 31 E7 50 EC CF 36
 0E F3 F6 75 6D D8 03 16 00 CA 69 EA 59 EC 81 D7
 AF 8B 8A F4 9C 38 E2 03 7F 9E 24 FB 5A AA D6 5C
 B0 08 1D 8D E7 A6 84 56 1D 02 44 2A E5 7F F0 51
 CF B9 86 2C 56 3B F3 04 16 E9 C9 DA 45 15 EC 84
 EA 3E 61 0C B6 9B 0B 57 5A 8C 1A E3 40 8F 64 BD
 E3 F4 6C 1A 8F 1C 9E FD 72 D0 D7 1B 40 E0 F8 0D
 74 42 EF A2 DE C3 17 A1 DF F5 8A B5 0B FA C4 9E
 B4 FF 4A E8 08 3D 36 B4 1C 13 FC 1A 8E E9 EA 9F
 3D A1 B7 A4 82 92 54 76 A5 AC A4 1E 27 6F 1D CE
 7F 84 BF 74 FB 18 A1 BF DA 5D C7 92 DC 9A 64 65
 A1 05 70 C9 0E 2D 13 A4 FB 29 4E 0D 73 35 A8 30
 E0 DA 1A 46 A5 DF DC 2D 52 16 98 21 2E A2 C7 4A
 BB 9D 74 49 47 DD 4A B2 AC D0 36 72 36 7A 4E BC
 7F 34 2E CE DD 33 F4 A1 C2 4A AD 8E F1 FE 10 40
 AA 99 66 E7 A5 B6 E8 62 A4 2D 4D AC 53 6A 9D 51
 31 CF F6 98 22 0A 0D C3 2F EC F9 0B E0 D6 DA BD
 F8 8F ED 43 DB B2 34 BB 77 14 5C A4 6B 93 16 83
 BE 76 32 EF A7 C2 F6 C7 31 97 DD 66 EC 75 08 29
 03 3E D4 04 2C 7B 14 77 E5 AE 2A 4D 2E 66 19 14
 E9 F4 66 C8 34 6C C3 FD 72 21 00 10 19 9D 69 8B
 67 0F B8 D1 46 1F 34 08 43 64 B5 4F 88 C8 6E EC
 FF B3 FB 71 3A DC AA 07 3B 5D 1E 28 C0 7A 7E 16
 D8 D4 F6 C8 3B 81 11 D5 9F 52 34 12 13 A6 BC DC
 70 FF CB 15 4D 52 58 53 29 1C BB F8 A6 CD 5A 2D
 74 D6 81 85 70 38 BD 3D FF C2 93 20 2C 53 77 C0
 43 F7 5B 82 13 67 7D D0 50 32 95 F3 BC 99 FD 64
 76 2E FE 85 59 15 12 7C 13 2C DC BC 76 2C 47 AD
 A8 51 0E 48 D9 55 9F F7 2E DE 14 CC 42 B8 77 D9
 45 69 AF 98 94 FA 22 51 00 C0 45 DB 32 66 67 93
 EF 98 C9 EA DF AB B1 46 60 1E A8 B8 80 1E C9 2B
 C9 74 CC F8 D1 56 D6 EC A7 24 7A 0D 89 ED 41 8E
 A0 64 DE A6 22 FD A0 4A CE B7 A0 DC 03 2C 1C 1B
 76 08 61 1F 5B 20 85 C1 80 DE C7 93 1E 89 AE 43
 9B 39 2E 79 81 81 67 30 73 80 17 40 EE FF 40 0A
 17 D5 71 B8 33 6B 57 59 4D 2C 56 3F 3E 3D 11 6C
 30 B8 57 01 EA 31 5C B5 6E 80 9D 8A E2 50 28 F4
 0B D6 C9 9C 3A 5B A0 92 B4 EC C0 EE 81 A4 91 CC
 06 2A C6 26 E5 E5 35 3A FD 47 E5 74 35 BB 3E C0
 CE 80 08 C7 50 8E EF B7 13 F0 AD 6A 54 3D B8 51
 BF C6 72 95 17 EF D6 D0 77 8A 3B 4C D9 2C 8B 16
 2C 05 FE 03 13 2A 6B 8E 17 4B 1F BD BE D7 1F 07
 B7 7B A9 A9 88 40 54 49 DF 10 C6 35 24 84 A6 98
 6E C9 7F 74 77 4A 76 70 4B 2E 65 46 55 08 C2 2A
 11 1E 0D 93 FD 92 20 81 F2 9F 4D 16 56 C6 9F E6
 75 DC F3 44 2A D6 55 45 ED B9 24 57 73 04 73 95
 13 C8 BC 11 22 0C E2 23 D3 72 B8 FB 94 60 C1 24
 71 FA A6 38 A1 84 A6 01 B6 6A 3D 0B 62 2A 3B 39
 33 07 A5 3A 43 02 A8 9A 52 1F A3 6F DA 98 22 B1
 61 46 F4 0F FF 70 AE D7 93 6D 2B E5 1F 90 2C 59
 12 5D 60 42 12 5F B1 D3 02 6A 26 22 5B 2E E2 A4
 2B 27 9E 61 A3 94 EF 83 1E 51 1B 9D A4 18 DA BB
 47 FF FC 8B A1 B5 13 27 AC 3C 50 FE 75 B1 60 06
 54 36 EB 1A 22 6F AE 21 2B 81 32 92 88 F5 5E DE
 15 0E 60 93 A4 04 C5 0A 39 58 E9 23 C2 21 51 B1
 4F FD B3 84 89 16 86 FB E7 72 68 54 EA DA D4 90
 71 F9 8D D1 02 6D 8B 6F BB CE 17 F5 98 CE 09 AA
 02 A9 ED F7 12 63 C6 A2 61 E8 D9 44 18 58 82 15
 1B C0 E0 9C 6D 77 A1 2C 59 93 55 17 D5 9D 5B E2
 35 AC DC 83 CD A6 60 7B E8 F4 48 42 1F 1A 0E 12
 94 2B 48 C5 54 24 21 79 97 F7 E6 A7 A9 8F 40 E4
 BD 4B 69 A2 4D C8 94 20 A5 A3 C6 2A 1C 17 97 6F
 6F E2 8C 2F 25 EA AB 99 1F D6 BD 8B 84 6C 45 FF
 C7 7F 6E A6 83 0D C9 F9 CC 5E E2 21 EA 4B E5 41
 91 4F C2 FA 9D 5B B8 91 CF AD 61 9B D0 4D 3E 11
 0B 6D B5 BC F5 1F 24 8D F0 60 A3 58 9D DF ED CA
 17 8E 9A 93 72 DA 81 70 EB ED 46 7F F5 83 84 B4
 C1 91 41 E1 4D 18 29 14 52 CF 96 5D 21 E6 81 60
 93 48 95 FC B3 C1 A6 50 61 EA 74 17 9A 10 79 9F
 69 20 E1 13 1F 44 37 68 0C 78 87 B7 BC FC AC 77
 58 AA 0E 26 25 53 56 AB 23 23 D3 D4 F1 D5 C5 63
 FF 0B 7B 3A D2 5F 52 32 BB 7F 78 94 CF B3 35 1F
 8A 11 2A 2D DC 8C 4B 29 B9 9B DE 68 7E 9A 8C 62
 1B 00 58 70 7B D3 79 30 27 D2 1C 6D 59 26 4B EE
 C6 27 D4 15 88 5A 87 5A BC AD 01 DB D1 BC 2A 9A
 26 6F 40 D5 97 B6 DB 12 7F B4 63 B4 C8 D6 B0 61
 AA 4C 7B 3D 44 C0 CF CB B3 DB 3A 8F E3 23 09 5A
 F8 0A F5 19 70 A5 B5 8D 27 C2 98 12 F2 AD 55 2A
 16 E6 24 A6 AF 70 F3 A2 B8 D9 BD DC AE 0F B1 20
 58 10 E9 6B 9C 36 B6 4B 17 C6 FE 12 EA 9E 19 65
 A6 06 A2 4A DF 1D 99 42 EB D3 EE 42 C3 4D 86 E2
 C5 4F A6 25 27 89 79 54 7B 6A 82 9C 66 78 C5 A7
 1F F6 10 00 CA 2B 5C 6C DA 4F 6D 22 0F EB 39 8E
 4F C1 9A C3 05 6A F0 27 96 A0 A1 CB C0 2D 7D 23
 34 F3 35 23 CB 0B EE 31 E1 CB 77 D7 8D 1B 65 56
 BA D5 30 25 DB 1E BA EE DC 65 F0 0D 8B 10 AE F4
 87 CF 17 34 B6 66 0F A4 D8 79 16 68 E9 86 B3 C7
 C4 F8 AB 76 AC FD 98 80 69 B1 5A 19 3D 2C 9F 4A
 7A 45 0D 1D 8E CE 9E 8F D3 53 01 20 DC 90 0F 8A
 AD 79 00 79 98 30 A7 63 3C AE 51 86 79 15 77 6A
 F7 54 D4 AC A4 F5 43 43 68 55 06 CE 41 25 94 E4
 81 24 9B C2 7C 63 B0 D4 E3 DF 54 9C 5C F4 0B D4
 84 38 4C 16 F8 70 16 F3 B3 6D 33 BE EB 29 17 A2
 69 DC 80 8A DB C1 34 8F A0 EA AC AF 8B 16 A7 8E
 0A D6 A6 07 EF 40 45 52 09 52 30 1E CE 3B C8 F8
 E2 90 90 2B 0F B8 28 81 D6 DA 04 AE AC B2 5B 52
 09 29 FD 1F 24 6F AF 8A D0 AC A2 41 A6 DE 78 0A
 71 E8 AA 18 C1 AE E6 2E D1 94 6E F0 4E C7 FE DB
 61 F2 84 78 FC 35 5E 93 2F 01 5A 38 D7 F2 1D BD
 E9 64 80 3A 76 D1 AF 68 3C 27 C7 91 15 EE 36 11
 47 B6 6B 5A FC 37 E8 45 7C 00 58 B2 44 35 BA 75
 B2 59 0E BE 5D D2 90 57 0C CF 7F 9C 76 75 0A FA
 20 4D C4 E1 FC 0D 88 7C 25 62 1A EC 24 2D 3D EC
 C8 82 C4 88 DF 0D E1 19 C3 6E D5 EA A5 DB A6 16
 CA CF 4F BB 84 5C 37 45 D1 68 B5 9E EA 62 B9 8E
 2D E6 F3 5C 62 21 C0 66 5F 0B 13 63 08 67 C5 2C
 67 C5 CF A6 C7 D5 BC 90 F4 3B 6A 3D 49 C3 5A 1D
 A2 1E 22 68 5B CA 5A CA 31 34 D2 F6 6A 61 ED 57
 40 B0 9F 74 F4 0A CB EE 31 35 78 7F F9 42 2D 36
 00 8D 3A 95 D3 62 23 EB E3 32 D3 CB DA 1C BB 8C
 38 6A 73 64 71 98 B2 3D D7 F7 B0 69 EE 13 3E F0
 4A 9C AB 4C 03 F5 A6 9D 78 6B 7E 32 BC F8 01 96
 4E 03 4E 6F F6 64 B1 3E 8B 2E 4F B2 CB BC E8 DF
 6C DC F5 79 D1 5B 4D 3A 5F 51 3A EE A8 1B C2 50
 8F A7 EC F2 F3 35 9E 34 DA CC 50 43 E8 8A 5C 34
 0F C4 D8 74 5A B7 1C 7B 13 CF 38 62 DF 0C 99 9A
 28 DE AF 2F BD B8 EF 07 16 EA F5 65 04 4F 86 71
 5B 56 DE 1E 29 E2 5C 07 0E F5 F3 16 D2 A7 43 A3
 7B 6A 78 6A 40 C5 89 0E 27 3D BF 31 1C 58 14 38
 31 C9 7B 9B A8 15 3D B4 9A CD C8 22 3C A1 95 85
 8C 9D 4A BA 7C B1 06 7C 88 21 B5 5B 63 99 C1 CB
 72 21 9E 97 93 AE 4D A3 E9 AE 90 79 A4 98 7C 00
 06 83 7F 9D 3B E2 7D CB 2E 28 2A F4 C6 CC B7 6F
 0C D4 18 83 93 EC 16 DB 94 AB 3F 1C FE 3E 07 80
 13 49 6C E2 0E DC 2B 15 B3 5B 77 70 09 DC 16 E5
 ED EF F5 4B 84 B3 54 05 C9 23 5D 96 A7 A1 2A 3C
 D7 4D DE AC F9 CD 56 14 F7 ED BD 4B DD 9B 8A B1
 6C A1 CA BA 1F 21 13 5E 95 5A 77 9F 34 3D 2B FD
 8B D0 04 65 A8 06 75 E7 66 60 12 8B CA 40 99 2F
 5A 69 F0 72 43 97 D4 BB 6D 99 37 A2 2B 40 11 4F
 81 3A FF E6 F7 D5 C9 55 16 9B FC CB A3 07 8E 20
 BC 23 5C 83 C2 C4 5C 9F A8 24 8A AB 0E 08 8F 3C
 15 4D 1F 8C 8A 9C 6E 57 B2 5A E8 90 2A C2 34 16
 37 37 12 80 AB 48 DE 79 01 79 4D 75 B5 1B 05 CF
 A2 EC 4F 5A 1F 47 E3 48 20 45 A9 A6 26 D5 A3 89
 94 3F BA 0D 94 B0 7D F2 22 31 AC 46 C6 66 D6 B8
 88 A9 C7 9A 65 F6 DB 62 75 F4 29 A0 27 28 5E 01
 A9 6C 96 2B 2C 73 59 8F 22 0A 07 A1 6E 15 E9 90
 22 02 72 84 BF 69 08 A9 AC C3 D9 FE 3A 15 92 92
 3C F5 AD 40 C9 BA 29 79 2C 00 20 63 19 95 92 8D
 4E 9B C3 2B 71 FA B3 88 34 A8 63 66 BB 9D DA F2
 FA A0 A7 88 6C E8 8C 2E A2 DF 54 DD 24 00 0D DA
 74 D4 26 4A 3D 3F C3 28 AC 76 7E 72 E7 7E 10 67
 76 F6 1E 7E 12 87 24 C5 85 03 29 D8 8D 71 E9 AD
 F0 05 DA 39 F3 4F 85 D7 BE 06 C3 ED 32 99 C7 74
 09 B1 05 65 CB 5F 83 1C 14 85 D3 11 A7 A3 ED F8
 E3 5A C2 F7 0C B1 8D 48 D5 26 18 E6 F3 F0 4E A7
 B6 3A EF 13 32 E0 D0 01 64 F9 82 D8 32 BD 40 BB
 89 04 CD 14 DD C6 5A 7F 44 3D 40 46 12 C6 57 E0
 C4 BB 34 ED 96 27 DD 82 D3 65 AF E4 A7 F0 81 E2
 6F C0 E1 9B 16 90 BB F8 B9 47 E4 39 EA 0B B2 5C
 EB DE DB 35 A7 6A AE 4D 92 B6 59 F3 A4 F4 BE EF
 AE 8A 1A 23 47 E7 34 EB 1A CE 5F CA A0 51 4A 14
 18 7E FB 1F D3 CE 0F 8C 44 2A 0D 15 30 D4 09 06
 6C B8 49 C3 51 61 2E 24 E7 94 CC 24 36 72 30 6C
 91 20 0D D8 39 8B 70 E1 23 03 C9 90 F2 27 A5 2B
 CF 3A 03 18 B1 EC A4 A1 7E 24 9E 41 4A DC 45 4A
 61 4C 51 E9 0A F2 33 34 19 12 9E EF 46 9A AA 90
 D7 D0 85 DA 30 00 46 31 95 E2 8F 88 E7 99 A2 A4
 F7 65 1E 89 2D B2 DB 36 7C AB C3 67 43 96 E6 9B
 CF 72 A1 64 B9 BC 50 A8 F6 39 2B 60 A6 85 F4 20
 0A 27 36 E0 C7 D5 AB EC CF A4 70 7A FB 65 6C D7
 EA 1C 20 B8 24 F5 9F 19 BB 74 3A D0 91 96 C5 F5
 80 37 42 D2 03 DF DC 11 E1 D6 4B 13 DA A0 B9 DA
 94 FB 75 EC EC D4 C2 34 B4 F0 0A F8 BE 16 2F CC
 52 60 57 FE 31 DE AD EF 90 6C 7A CD 27 D8 0F 85
 29 BB 8D 3E 4A C5 FC A3 70 32 02 7F 6C 97 69 B0
 61 C1 C1 9A AF A4 F3 5B 33 75 8E 9F 9F 3A FB F0
 11 70 D2 D1 5C 8D ED 44 1F D9 5E A1 82 36 03 4F
 EF A1 FC 29 ED F8 70 21 16 92 E3 65 7C 73 74 6B
 26 A5 64 F9 7C AB 17 85 5D C7 2C EB 24 28 3D 37
 A5 21 BA C1 E1 2C EC 97 B3 2C 10 38 AE 8F 12 57
 D8 61 3B 46 79 9F 96 5F 54 D7 D3 6E D1 02 38 D4
 E1 C6 D1 78 5C 09 9F 2F C8 3D AF 65 3B DE 9B 7B
 DA AD 93 FF DF B9 B3 AF A8 3F C4 EA 70 6B 6C D0
 F5 A3 80 87 4C C7 BC 9D BA 61 30 C6 A9 7F D2 A0
 3D 04 2E 3B BD 2F 7F 95 07 BD DB 44 97 5C 98 E1
 43 3D E0 F8 22 13 AE D7 37 24 2F B6 EE F6 F7 02
 F1 EA 51 0B 41 DD 53 DB 40 72 A0 6F 73 5F 75 6E
 A5 E2 55 28 BC EE 78 97 94 C5 3B F7 AC 0B 30 E5
 E5 AA C0 5E 07 34 88 66 9C D9 C2 47 18 E0 19 D2
 F4 59 49 1C 50 15 02 1D 57 92 2D 3A 7B 97 42 2B
 37 E6 CB FD F0 E0 AF E7 48 69 36 F9 D3 07 1B E2
 0F 8E 9C 31 58 2E DF 23 A8 BD 77 3A 98 93 C6 1A
 3A 7E 64 8F 2C B8 78 59 B6 54 E3 DD EE 10 73 A9
 6C 7A 69 7C A5 C2 70 61 3F 41 92 73 64 A4 83 99
 D4 14 17 3F 97 A3 5A A4 85 4E 42 B8 AA 21 08 C3
 5C E1 54 DC 99 15 B7 2E 3A E3 64 3D 56 EA E6 45
 62 47 2E 4B 1A C1 01 BD 9D 83 88 01 28 73 BF A4
 CC EB A3 EC 77 5F DD 8C BE 02 6B C3 AE 44 71 FD
 61 54 AF 7F 0C EA 0A B0 DA F1 A6 C5 7E 9A 60 1B
 D1 87 DB 2F AE BD C7 F7 A3 21 B8 0B 09 E9 8A 1C
 3F 78 0B 94 68 64 66 5C FC 05 CE CA FD 3C 4E C8
 AF 6F 65 CA 98 14 70 A0 C1 2E DF EA 16 F4 C0 B6
 B4 3B 7C 13 D6 0B 6D 5B 2A 3B EB CA CB F1 8C E2
 6C EE 5F 59 D0 DE DC D2 53 2B 1A 5C 98 B7 64 07
 F3 2B DB 0F E3 79 E6 43 99 20 96 1F 90 78 6F 06
 3C 9A F5 1A 1B 86 9D 30 37 7F 52 D9 F6 0D 36 AB
 61 1C B1 FC 37 E0 41 47 51 76 92 CC 62 AC 06 3F
 4A 5A F9 B6 53 B6 FF FB 9F 88 59 66 77 0D 93 DB
 1A EE D4 C5 B1 65 C3 51
* End 140239177 2996975704