* LTspice Encrypted File
* 
* This encrypted file has been supplied by a 3rd
* party vendor that does not wish to publicize
* the technology used to implement this library.
* 
* Permission is granted to use this file for
* simulations but not to reverse engineer its
* contents.
* 
* Begin:
 36 D9 5A 73 12 11 2B 6F 7C 2F B4 EC C7 FD B7 61
 61 4F 4E 99 5D 11 00 F6 7A BA FC 01 53 CD 66 C0
 91 71 EB 6C 6F 4E 87 42 ED 11 EC E0 A9 79 09 27
 9F 66 8B 13 DC 27 A2 D8 74 0C 18 F0 DD 8A 3F 23
 3C C5 C1 93 F1 69 E0 DD FE 3B 45 39 54 42 7E 66
 42 6C BF F1 5A 9C 93 58 E4 E6 BA F1 D0 14 BE 9E
 EA 2B C3 1C 93 85 A6 74 63 F4 F8 C1 40 06 91 88
 05 ED 86 CF B1 2C 2D 6E 4D 6E 7F B1 7F A5 1C 6E
 93 CD 91 DA FC FA 97 73 6B 84 B6 63 39 22 0A DC
 43 53 71 D0 AA 14 0C 1E 94 32 47 6A 07 39 55 E5
 B6 BA 25 07 2B FF F4 EA 0E 36 B6 42 5F 7A A8 B6
 76 EF 2D D1 A0 6D 11 96 B2 1E C9 C9 4E 3F A5 5D
 1A AC 02 52 53 B9 9A 89 1C EA 3D B3 BD 77 01 60
 62 34 38 18 39 45 A6 F9 15 FB 3E 96 DD BD 22 82
 73 B4 62 17 3F 6E D2 6F 5D B7 34 0A E7 C0 39 3D
 45 2A 98 FE C8 C9 D9 CA A0 CC C2 A6 CF F4 60 D7
 54 46 3E EB 29 C2 DB 84 DB D4 35 02 69 30 0F C4
 C9 62 9C 5F 77 34 C7 A9 C5 32 A9 A4 13 AC 7A B1
 E2 1C 4C 26 2E 70 5B B9 E7 3E 69 6E 72 CE A0 DD
 48 1E 23 EF 22 77 A9 F5 08 88 4A 88 02 3D 02 B6
 85 E1 A7 15 45 34 4B 97 D2 C9 A4 5E B5 FC C5 4D
 B9 F0 F8 A1 C0 DC ED D8 51 EB C0 61 05 62 2B A9
 B3 C7 F0 41 F5 A1 76 F7 A2 E5 78 BC 05 C6 72 8B
 58 A4 74 6A 5E B1 5C 51 9E AA 05 18 E9 91 64 5D
 0F 98 64 2F AB 1D 06 5F E7 E5 09 C5 49 42 A6 38
 0B EF 11 CA AB 2F 4E 89 EF FD 5F C9 08 1B 67 10
 78 F1 C7 47 7D A2 C1 C4 9A 55 40 2E 37 F0 80 9E
 58 C8 04 71 55 80 63 76 1A 97 6E 60 37 4B 37 93
 20 72 19 22 78 FC 6A DF 1B 9D 16 3C 80 22 D8 E3
 9C 02 49 AD 76 C7 DA 2E 14 B7 A1 10 FE 32 42 03
 E7 88 D9 92 C7 B0 88 1F 39 7F 7B 3E 5A 3E AD 3A
 AF CF A4 5E 53 FC 5A AB 45 13 5D A0 ED 27 5E 21
 3B 16 2F 53 DD 28 59 B1 3B 7A 1C 75 1E 51 69 E7
 51 3B FB D7 99 D6 62 2C AB 41 88 B0 8F 66 2C 6A
 AF 2A AD A1 EF 0C 15 F4 3F 5A E4 95 8D 04 06 3A
 3A E6 C4 32 0E 11 7E 84 2F 2D DA 63 8A BC 44 CA
 D1 71 49 EA 55 7B 37 97 77 F8 A8 77 95 F0 3A 29
 32 D3 C5 54 6A 11 9C A1 04 D1 7F 9F EE 19 23 6F
 AA D0 B5 FB 9D 85 6D 7F 85 9D 75 9D D9 65 FF 4D
 78 B7 0F 7C 62 51 39 65 2C 86 FA 86 FA B0 44 C4
 3A 9B 9C FA F1 50 15 3D 23 72 B5 0F 53 D9 EB C4
 F8 4B E6 37 6B F1 A3 3E 57 B7 3B 03 55 30 FA 88
 4D 50 91 FF CB 85 B8 88 CB 59 52 88 3D 7D 7C 5E
 92 AE AC 17 0F 94 1D 05 ED 0B 6F DD E0 96 BD 29
 1C 02 ED 01 43 B1 89 E0 D0 33 C0 4E 55 C7 F3 77
 2E E7 17 55 0E D0 87 18 00 7F DE 04 09 17 65 55
 4D D6 23 26 B6 09 02 99 A6 0E EA 42 13 31 F5 11
 F7 FD 79 77 D8 3F 01 CB 5B DF 48 67 C2 9C 54 48
 CB 89 A7 B8 18 D9 5F 43 22 F6 54 D3 8A 79 FD 7F
 4C C8 50 EB D1 4A 23 72 B9 4E C3 FA 94 AA 91 F2
 A8 D9 6E 30 1F E8 2B FB D6 AC 97 72 C8 BB CA BD
 FC EE 4C 7A 5D 42 C4 65 A6 F4 4C CD 5F 3A 17 6E
 16 D4 A7 61 B0 F8 B2 47 84 D3 59 D3 9E 03 02 44
 B6 26 35 72 3A 1B 10 0C B8 F5 5F A7 F2 E9 BA 12
 CD E2 B2 B2 BE 57 C2 56 36 81 34 1E 9B 9A CE 86
 7E 24 BA FC 0A 18 3A 62 EF 46 F2 28 A0 59 FB 74
 E1 12 9B 89 35 9D 55 9A 19 D2 0C 56 EE 79 52 C5
 FA 30 27 F1 78 18 5B ED 5E B7 47 A8 DE 87 20 54
 61 6A 24 40 6A C2 6A 15 FA 0E FA 92 02 24 77 39
 63 47 6D EB 80 07 5A F8 C5 68 2F BA 35 5B E6 80
 41 9D 05 DB CE 89 EE 18 39 8E 32 C2 6D FD 96 34
 C0 9C DE B3 8B 4D AF 36 66 00 AE 1B 81 2C 7A FF
 29 63 E8 E3 07 7C 2F BF 19 33 7A BE 25 07 56 9E
 51 45 57 CC D5 DF 44 64 33 44 13 AC 9D 7A 07 E7
 0B 49 C9 51 14 B1 3D 4A 4B 41 75 3B 0B 58 83 E4
 10 F8 96 F5 63 32 25 AC D3 A6 6F 48 52 AF 03 1D
 A6 DB 29 3C D2 BF A2 14 74 E6 DD 0A 38 6B 4B B6
 01 6A 62 03 62 6F 11 41 89 88 23 7D 6D 93 E5 30
 FB F2 6C A1 B3 01 A5 2D 78 08 C2 10 C5 BD B5 84
 F3 76 21 2B 50 DB 5A 2A DB ED 55 A2 B3 94 6C 74
 FF 1D C4 B8 05 C4 9B A2 3D 99 E3 49 3B 0A 66 6B
 FF B6 45 A8 DD C7 57 7B 1F D8 9D E1 EA 06 7E 09
 F3 BC 6C A4 56 85 F3 6B 6D 60 D8 52 13 6C 4E DF
 88 23 36 95 25 46 F2 FB AD 38 8E 7A 79 63 93 25
 11 1B D1 7E C9 F9 5C B6 36 6D 3A BD C3 B4 BF 4E
 08 77 27 82 FD 91 6D 36 6C CA 19 0B 9A AB C2 39
 C1 5B F6 6D 74 9B B7 46 75 6F 7A 1E 52 9A 26 54
 F5 4C D2 C7 50 29 71 43 36 68 9D 64 97 84 BD F3
 A9 AF 72 7E 4A 51 48 62 72 44 BC 04 7C FA 01 66
 14 BF 20 F0 9E E6 6F 9A 6B 92 B4 C2 46 9C 4A 92
 1F 6D EB 69 15 8D 14 0C EB 29 99 46 68 51 72 35
 F3 DE F8 54 A7 B9 26 8D E5 91 E3 AA A7 67 25 97
 C8 9D CC D8 6D 44 67 54 17 E8 36 EF 1C 3E 18 39
 32 8E 21 54 35 1D 66 AB FB 6F D8 2A D9 60 20 4B
 3E A2 05 AB 61 81 C1 2B E4 06 8D 56 0E C5 8A 9F
 50 64 8E E9 5C BF CE 3B 66 78 BC 27 15 E7 84 2B
 F2 6C CD 75 38 E1 05 DF 12 D8 DF 06 6E 58 E3 EF
 DD 87 5E F8 60 B3 67 E3 3A A4 51 B2 B7 1A 91 A3
 06 97 8C 9F C0 F8 F7 29 B0 D0 87 B3 3C 16 C9 CF
 C4 43 FF 9C 77 B5 DA 11 3C 55 55 42 7D D9 B7 B2
 34 3F 96 BD 1E 9C 4C 37 1E 18 BD 60 BF 7D 95 B7
 82 E6 7E 99 C0 D5 EA BC 6C 97 0E 84 57 F6 68 05
 18 84 68 E6 7A 43 4F 5B D4 F3 A4 99 67 D0 44 29
 CD 44 AE 8E 1B 27 6B B9 00 83 48 24 50 D9 84 5B
 FF AB 4C DB 0F C8 92 EF 41 71 F2 28 81 06 3C 00
 3B 1E F5 0E 8A D7 0C 8B C0 1F 6C EA 87 D0 80 05
 E1 89 8D D2 80 2F C6 FC 5D 15 8D C3 B7 1C CE FF
 29 20 98 43 6E 8A 13 74 EF 49 3F FB 24 39 D6 35
 98 E3 6E C8 30 57 82 55 74 39 19 30 B4 38 BE D9
 6E F4 27 57 68 30 F9 32 E7 EC FC B8 ED 35 2E 68
 7D 89 68 C0 6C FC BD 4C B7 AB 84 CD A1 C0 3C E1
 50 3B 22 F1 16 48 A5 99 39 31 E4 9E 7F 51 01 80
 72 EC A1 13 0A 34 0C 65 FB 90 BA 1B 21 13 F1 A9
 26 99 DC BE C6 E2 86 00 6A 06 F6 89 B3 91 2A 7B
 74 0B 2D 7D 43 37 6F 74 BF 93 73 1B FC 85 57 AD
 76 C3 1D 83 AD 7C 46 A5 41 CA 7C B5 3C 9B 92 16
 45 14 4D 79 24 56 CD AF 59 E3 20 06 48 2C D9 7C
 E6 38 22 70 39 90 A9 17 EE 98 2F 6C 0E 34 FE 9D
 24 C6 56 CA C3 7A 58 57 ED E9 E7 D7 81 8D 18 48
 FB 5D 3C A5 BA 64 3C D2 D5 AC 7C D8 77 4D AB 9E
 3A 67 E2 4C A6 C2 B0 7F 9D A5 B6 16 28 C8 5F 64
 22 2E 1A 6E 30 D1 0B E8 61 D8 C7 78 06 15 9F 4C
 B7 7B 8E 90 B0 86 53 8E EE 03 07 31 05 AD DD A8
 FF 2D 8B 97 81 A0 DD AE D9 E8 9F 78 74 3E 0B 41
 65 50 A9 32 1A CD 28 B6 88 94 9B 6E DB 11 03 EF
 62 43 6A 08 C3 1F 95 ED 2A FE EE 8D EB 46 DF 5C
 0F 55 4F A6 7A 7A BC E4 19 F5 AF BF F0 17 C7 E5
 6F BE 32 68 B8 AC 96 33 D7 CC BF 6C 16 70 E5 53
 54 97 A8 B7 4E E7 F9 E3 64 41 81 74 72 A1 28 CC
 8E 26 B3 84 FE 91 5B 3E 2F FE BF 35 EC CD 8B 30
 C6 8A 34 A8 51 E2 B5 6E 7C 2E 13 E8 E5 7E 4C 3D
 F9 35 75 12 69 2E 24 28 A6 25 34 CD CD 77 BC E3
 81 BC 55 98 01 AA A0 53 F8 90 87 22 52 6F D5 00
 8C 9C 25 06 09 91 11 9C B2 61 59 AD 28 D9 92 C6
 20 BB DA A3 4E 8A D6 52 47 F3 E7 24 30 70 B6 04
 DA 01 D7 5E 80 E9 28 DE A9 D7 BA 0A 76 26 2E DF
 8F FF 43 60 DF 85 58 51 09 A5 4D DA 3C 23 34 2A
 59 03 C0 4D F1 E5 2D 24 BD E0 CA C8 76 3A EA BA
 81 CA 13 F1 BD 0F 4D 73 7F F4 DD 7D 3B 96 4A 27
 31 5B BD C2 0D CA D2 EF EE 08 A3 70 8D 25 64 4A
 CB 33 CE 85 DD 16 A0 61 73 C0 2E BD A1 27 14 51
 61 B1 E1 86 AB 22 95 2E B6 26 BF 01 C0 00 35 BB
 48 25 82 32 CF D2 D8 27 C6 85 55 74 F6 92 34 27
 34 63 0F E5 D8 46 4E 6A AC 10 5D 32 A6 7D AA AD
 1D 5F 47 65 D8 E9 67 5B 8E 32 88 F8 52 19 3C 6B
 F5 E2 5A 21 D8 67 18 12 D6 E1 57 35 FA 26 9A 0A
 8E E9 4A 9C E7 0E 47 18 86 8B 5C 15 E6 E7 17 7F
 F7 23 81 90 00 91 E9 4A F4 78 DF 21 10 8B 8B E9
 9C 33 02 48 F3 43 EF 62 0F 0C 3C 99 1E 71 50 E5
 BF 11 51 7C 2C 52 D3 9E 53 F6 86 84 6C 92 07 A3
 1F D9 7D EF DA 2E B7 81 D6 C1 49 5A 47 97 86 49
 7B AE FE 36 AE BA 99 5C 76 4A D8 4B 8A 6C 34 96
 D1 61 7C 01 CF D2 83 4D 46 41 67 6B 5B AD 30 F0
 95 2C 7E 2E 39 FC E5 5B 7A 23 83 2C 63 88 9E 95
 E5 4C 33 8D AF 33 A0 53 B8 06 3D B1 4D E7 70 B7
 42 3D 66 00 92 98 B4 DC C1 07 5D 27 F3 BF 4F C2
 D1 5A 7E FB 6F F4 93 2C 71 61 53 2F 61 A9 29 0D
 2A B1 2C 6F E9 02 4B 97 DE 48 20 9C E6 EB 55 70
 81 2E 8B 67 0B 61 8A 3A E9 20 93 47 D7 C2 EF 5D
 D9 B1 14 C2 4B 26 E0 A9 2B B1 31 1C 4E 58 54 65
 A3 B3 B4 06 6A 88 A1 6D DA 99 83 64 96 03 7F 06
 96 BD C8 90 BB DE D6 D6 5B 67 40 51 4B 3E 42 D3
 9A 27 32 F0 FD 31 AA 6B F1 05 EE F9 AB DF DC 88
 87 C8 C0 64 F8 94 91 EB 83 86 50 07 9F E9 76 1D
 2F 0D EA 13 45 EC 58 4C FD 5A 88 28 A8 D6 C2 45
 C4 81 5D EA D5 44 E3 4E DE 5C 16 45 F0 D7 23 89
 56 D3 48 22 09 22 A4 6B 23 2E 31 D5 79 01 E6 6C
 F3 47 CA 91 A1 95 6A 28 AB 46 77 D8 45 3B E5 B6
 BF BB C7 31 B5 B9 97 D2 8A 1F E0 0B 4D 49 5D 35
 74 7B 2D F2 D1 76 E9 C6 69 FF 03 75 00 F8 F8 29
 B2 38 30 16 C5 33 15 57 00 8B 37 4E 08 C2 F6 A1
 46 9C 25 E5 7A DD 68 72 A7 47 3E 30 41 91 05 B3
 8A 52 1C 63 FA A9 2D CD 3E E4 71 4C 21 F6 E0 93
 C9 05 36 68 86 E6 16 E1 44 1A 2F 77 4B 1F F3 99
 B6 1D AB E5 58 8A 5B 00 3A EA D0 AA 1E 1B D6 63
 FF A8 8D 10 E7 A8 13 6F 39 02 B7 42 43 A3 C2 01
 9B FA 7B E5 41 0D 80 8C 81 EE 34 94 23 B8 07 A2
 8E C8 85 3D 66 47 56 09 7F 6B C7 DB 9F E5 E5 E8
 DA 9F 49 0B CC 9B 19 C2 A3 7E CC 89 4A 35 25 5F
 35 20 E9 14 7F CC C3 23 AD DF DA C8 46 C4 0D 41
 D2 9C 3E BD D6 E3 B6 6D 2C 34 9E 93 CA 23 A8 4D
 2D B7 65 DB F5 2E 72 D0 59 79 AE F4 BC EE 0E 51
 08 02 E6 6E 9A 72 88 77 1E 5B E7 6A 67 0A CC 67
 6C 20 EA 2E 66 F5 B7 D5 57 01 E4 85 B8 C8 9E F9
 94 00 D2 C5 C2 3A 08 10 46 FB 82 FB F7 70 1E 46
 1B FE 7D D3 2C E8 F1 40 3B 11 1C C1 93 7F 5C 1A
 2F 6E C0 E7 99 FE 06 61 D6 08 CF A6 EC 45 5B 3F
 3C FC D8 FC 8B 63 67 BC AD 14 98 C2 A9 19 9F 27
 EE 05 69 9B E0 3B 2B 7E 61 92 1A 6C 22 FA 92 9E
 FF 1A 94 FE 06 D7 DB D6 24 45 2E 3E 0E 50 B6 1C
 90 D9 F6 95 62 DC 0C E4 E5 23 48 65 EE 47 08 BB
 B3 64 4F C1 A9 62 14 1B DA 8E D8 F1 75 6D 3F 3E
 34 09 13 E6 FB 99 7D B5 C5 F4 6A 51 21 FC BF 06
 36 26 C3 5E 9A 0B 01 0E 81 C5 B5 8B 71 1D 73 C2
 8A 8F 0B E0 E1 11 2B BC 5A B6 D3 DF 88 C2 52 ED
 A6 F8 2B BC 49 E4 B9 F4 CA 15 0F F5 B8 33 CE 46
 38 81 DF 68 EF F8 70 28 F1 22 49 5B C8 CB A8 57
 9C F9 41 BD D7 F4 2A A9 E2 88 63 3D AA 75 9F FF
 7B B3 4A 60 D8 B8 24 2B 71 EF 0C 0C E8 48 D3 44
 D2 CE 3B E2 F8 62 ED 02 84 E6 53 1A DB 19 C0 05
 1D B7 03 68 D2 CE 12 6C 62 47 7F EF 1D CC B7 06
 A1 18 AC D0 D0 6B FD AE 97 A9 5E 23 AB A3 E4 FF
 A6 14 F3 06 FD CB E3 13 4D 13 31 8E A4 48 64 50
 C8 D0 D0 92 70 BE 22 51 B2 FB B8 4D 89 C6 80 3D
 B2 A8 CB 85 5A 0A 74 81 AA 8B 34 4A 63 32 44 61
 F8 33 C2 93 20 05 42 D9 30 70 6C 2B 3D B6 A5 65
 A7 16 C6 33 C1 1E B0 B7 DA E4 19 43 3D AD 42 AA
 16 6E 90 1E B5 6C 97 24 34 46 F9 E2 32 32 D9 AF
 C8 44 0E 90 5C 52 FF 60 5A 54 93 1C 7B C2 43 98
 3D D9 FF F1 4D 26 73 A6 07 B1 FB B1 39 CC 3D 73
 66 FB 6D 4E C8 56 75 B3 42 F0 4B FB F5 D4 70 12
 94 63 BF 1A 08 F8 B6 29 16 93 3E F5 23 1B 3E A9
 E3 99 F1 0A 01 72 49 9E F4 CC 4F 02 A3 6D 08 2F
 19 EF 10 F6 1F 93 0D BA E6 60 1A D5 58 F5 0B 3B
 2E EC 27 44 77 02 E3 91 DA 8C EF 6A 7F F5 9A 7B
 DA A6 66 2C B0 99 3D A9 1A 1F 4A 14 12 A2 67 06
 01 28 A0 AD B9 51 21 AE D5 CC FF 4A 9A 1D 2F D8
 9F 87 4F 82 1A DE 07 CD FD 89 D8 29 1E 36 89 F5
 62 CC EB 63 46 77 09 57 AE 2D D9 B6 30 56 7F B9
 7C CE 9F 5D B7 E0 D4 92 D6 9C D1 3A 3D 84 E1 F4
 61 97 78 7E BB 42 2A 9B 1C 05 7A 16 99 32 D8 14
 EE 1C 52 FC EB 09 AE 54 97 2E B7 67 A6 96 6D 5C
 5D 16 46 54 D1 63 40 01 81 BB F9 B7 4E 98 02 41
 0A E3 3D 09 1D 37 DA FE FE AB B9 AE 4F 3B 1A 47
 66 39 4E 49 45 DB 07 97 86 14 B2 3D DB 53 18 80
 6A 15 5A DD AE 4B A9 CF 52 15 F4 D8 1E 8A 15 AD
 BA B3 71 36 B5 3C FB AC 13 96 13 D4 B2 EC D0 A8
 09 19 71 36 47 6D 74 02 AD FA 65 29 46 06 5F F4
 A5 D1 83 71 14 C7 B7 39 58 6B 85 AF FB 06 27 1D
 CC 85 CC 5B 56 69 BA 92 1E 20 F1 33 C1 B3 8D 14
 C8 7E 70 B0 F1 66 0F B3 70 36 E7 FC 87 CF 60 18
 4B 4F 32 0D 05 B7 0A E0 81 77 EF 14 AC 5D 42 E6
 EA 1F 55 5B FE F6 E8 C6 C5 03 94 73 30 A3 3E 28
 A6 69 02 39 53 6D B3 AA 04 A7 AE A6 27 36 F8 8E
 46 96 E7 03 AE C6 61 97 81 19 9C 8C 52 29 D3 E3
 4A 22 24 EC F5 A4 02 EE 17 9F E8 EE EB F7 E5 32
 4D 24 A0 6E 6E C7 D0 9E 94 CA 77 50 CA 17 E3 7B
 F6 E7 1B C5 35 A1 ED C0 26 8C 6F F0 7E 70 F3 2B
 D3 BE 3E 98 CD B4 15 86 A6 6C 9F 63 F1 6D CE 7B
 BE AB 62 21 91 D2 6A 9B 28 4E D7 AB 83 99 F7 81
 6D E5 A4 D5 04 B5 E2 0F 3A A6 80 B3 A4 8D 3A 11
 D8 07 EA D1 A5 A6 9C E8 12 8F 9B DF E3 BF E2 8D
 86 85 77 0B 82 93 40 3A C9 A4 01 F0 DA 82 59 04
 18 42 F8 93 96 99 BC BC 5E 0A B7 5F FF BC 91 BF
 8A A6 52 F2 FC 3D 56 76 2A 87 EC 49 2B BC 5D CE
 E6 15 48 FE 2E B5 1C 02 4E 92 5D A3 3F 0D C7 68
 85 3F 93 C6 26 7F BA CA F4 E8 77 7A F3 C1 64 45
 12 68 99 A1 29 99 25 90 F9 93 D6 12 8A CD DB FC
 CE 36 D6 4A 73 59 84 2A 7B 3C B1 0E 7B D4 A9 BF
 63 19 AE 30 20 C0 7F 49 32 60 99 14 DD D2 57 A7
 A4 63 91 E2 4D F1 C8 36 A6 8E DC 53 1A 9A A5 1F
 A2 12 D0 3A FF F5 D0 8B DE FF 5A 3B 07 1F 0D 63
 04 88 66 8D D4 FA 29 1F 2A 8A 0C 2E 2A A9 D7 CD
 17 75 34 CC D0 AA 77 DE BD FC 35 1B 0B A0 D4 91
 3E 36 BE 6D 25 B6 62 17 51 8B B9 7E E4 A3 04 9D
 87 E2 EB 70 07 8E 92 B7 A3 6F 32 44 B4 C6 9F 99
 F9 91 23 11 56 D9 CA 59 DB 4F 54 48 BB 70 C6 A5
 39 DD FF 1F 54 14 29 C4 FD F6 17 66 AC 80 50 61
 0A E1 8C 0B 50 6B E0 2C 05 E8 5B 8D F8 18 40 A6
 96 4D F6 0E 98 53 D8 86 29 4F FA 0D 2F 60 C0 7F
 3D 4C CA 7D 47 BD 72 C2 C9 4F 47 D1 5A EC 83 E2
 5A A5 80 1B 33 81 80 B4 17 65 E1 4A 4B 46 58 0D
 92 53 44 91 85 06 9D 23 E3 39 8C BA 51 7A A5 A8
 97 73 47 DE 6F BD D8 7D 76 22 A6 3F 84 76 ED E6
 60 B3 A7 1F 81 D7 B4 97 8D 54 A1 0D 94 92 AE C8
 19 06 A4 84 81 D4 FE 63 B3 0D 56 67 96 F0 3A B5
 CC 5A 21 58 08 81 32 8B 1E B4 C7 61 10 92 1A 59
 6C 1D 0A 28 75 6C AB EC 41 74 A9 A3 56 75 F0 45
 BC 03 2C C1 68 B6 96 2B F5 43 21 2B 27 5D 14 27
 00 F8 C2 62 00 E0 CF D7 C8 00 AD FC F7 8D BE 3A
 CC 93 B6 D9 E9 C8 00 D7 EE 0C 65 1A D6 44 26 67
 85 14 1E 83 62 FD 44 28 91 5B EE 7B C7 DD 6E 31
 A0 FB 8D 65 FC 88 74 B9 6D E9 FB E4 D8 35 23 CF
 EB C3 E0 22 36 A9 36 E6 D4 87 DC 54 7C 88 E8 A5
 BA 7E 55 DB 9F BF 27 06 B8 27 8F 08 45 E9 4E FE
 70 86 59 79 70 DA 95 39 37 23 07 8B 3E 55 AD C7
 72 26 9B AE B4 C5 6B 00 4A 33 80 9F 1D 3B 72 C2
 31 FA 5C 20 B5 ED DA 48 63 81 0C 4B A8 18 23 DF
 43 05 70 31 80 1F 43 E5 5B 6A A3 19 59 3C BC 78
 89 EF 03 6B 2E 49 DA 0D 77 73 8F 0B 49 3A AC 74
 4A 7E C6 91 28 A7 69 BF 48 BD 09 1A 5F 9A 5B 5B
 21 96 E9 66 24 9D 3E 44 B8 88 06 FD A2 47 30 E4
 E5 08 5A C3 D2 66 74 E0 EB 0D 31 12 2D C7 DB 1D
 0D 02 B1 14 E7 E7 BE CD D7 1F F8 6A BF DB 8D AE
 70 6B 6D 72 8E 91 8E F3 86 4C 5D DA 7E 13 30 ED
 4C 0B 21 01 B3 C2 70 3A DE A8 1D 91 B5 E8 0C 86
 FC 27 7E CD 00 AB CE B5 44 A5 E1 D6 20 8D 70 56
 E0 E3 53 B9 74 3B 8F DF 68 03 E3 AE 1A 42 A2 E4
 20 C4 F8 77 A2 71 24 76 BF 9A 57 F4 83 A2 24 69
 C8 7B 9E 8C 82 75 2E 6F 71 98 82 1C 2C 26 FA 87
 D7 96 58 16 87 2F A1 71 A6 3A 8A BD 95 6B 67 00
 E4 65 74 E7 50 11 1D A2 B9 3B B2 41 74 C4 27 2C
 B1 C8 56 09 8B 6E D7 E7 3D 05 89 9B E3 87 BB 22
 29 C8 DF 3D 18 C4 4C 0D 9D FD 1C 45 5A D9 B0 C3
 E7 78 F0 30 11 88 C2 27 96 8C 18 CC 45 48 44 66
 FA 7D 5C 92 BB 2F 64 6C 36 E0 5E 0C 0E F2 6D F3
 E0 4D 8E AE D2 1A 9E AE 72 37 43 45 37 B1 14 5A
 AC AF 50 FB 17 89 A7 D2 44 18 FA 2C 39 CF 4E 3B
 CF 53 0C FF FF 1B 04 E9 7D B9 9D A4 08 CB 26 D5
 51 E5 02 52 DF A3 7C 29 AC CC CC 61 33 00 95 E3
 9E 5A 75 26 E0 BB AA 7F 91 50 A1 10 8B DE 9E 38
 81 FA 57 BA E6 9E FD 0E DF 0C 46 D8 F9 2F A3 2A
 97 D0 A3 33 1D CC 34 38 76 DC 32 23 6A 89 93 CB
 9A DD 08 2A 82 3D F1 7C 1B D1 7A 94 F7 B0 50 E5
 BF 16 A6 7D F6 34 C4 61 38 20 EC 51 D8 22 57 AF
 D6 B2 B5 A4 E2 99 00 FF 7C 43 96 DA 4D FE 69 10
 76 0E 4A 76 8E 57 58 29 B7 16 FF 4A 56 39 28 FF
 51 FA 06 CE BA 27 17 57 68 D5 1C 55 90 EC 15 79
 7F 9B 69 DD 69 4D 96 0B CC 37 F4 91 A1 E7 64 87
 8D 75 E2 37 B2 DC BF 2C BF 2C 62 84 DA 18 9F 22
 91 32 A6 D4 81 FF F2 AC 2E 54 4C 20 8A F7 7F 46
 DA FF 57 91 6A D3 17 66 CF F6 C0 62 D3 B8 6C 81
 AA BD 04 80 88 C9 51 76 3C C1 94 F1 E6 9C 05 E2
 F1 F5 DD 6E 56 82 58 73 62 F5 26 FC 93 56 33 37
 0E D2 50 E2 21 D7 FA 4C C2 F1 DE BA 55 69 F9 6E
 13 D7 C4 0E 66 4E EA 4C 02 F8 1F 60 AB D0 94 A4
 02 12 6B A6 D8 4B B3 61 D8 0D F0 A8 4F 9E C5 82
 C5 F1 57 AF 99 B9 A3 DD 11 07 1C E7 72 5F D1 AE
 5D 1F 78 42 A6 BE FC A0 DF E0 FE 83 5C B9 94 AF
 88 D3 36 2E 9C C2 67 30 F4 D8 51 C2 CC 31 9A 64
 56 1E 8A 68 DB 02 45 2A 5E 21 03 FB FD 11 A5 E5
 7A 09 28 0E F0 D6 28 50 1C 1F A8 22 41 05 57 F5
 37 DD AE A2 26 B5 F4 B6 20 6F 65 C8 04 1E 25 6B
 50 34 18 F8 A3 0D A2 43 C7 8A 41 AE 2B 35 F8 C7
 A8 75 82 DC 4F 57 0A CE 62 57 CD AF 7A C5 3C 8E
 D3 AD AF 2C 0D 5E 6D D2 8B 3A 29 60 71 90 0D 3A
 D6 31 3F 98 87 E5 E2 CA F5 42 88 7E 81 8A D4 A7
 25 D2 69 97 F2 99 F1 E5 19 84 34 0B D8 FD FF E3
 C2 23 A0 80 EB 32 AE 5D 33 39 C6 ED 8D 1D 5D 3E
 94 25 92 32 33 4A 71 6A 3E 5D 74 41 9E FD D5 98
 68 15 9B B5 FD BA 72 0E 17 C3 43 D7 4B 3B FC 6B
 40 A1 0B 89 F9 44 CF 4F 01 8F 33 D5 9B 5E 48 87
 59 C8 84 5A 40 0B F0 3A AC 4F C2 32 0E 72 45 29
 9E 5A A5 75 7E F0 29 57 50 7D 49 04 EA 02 90 9B
 DA D3 30 0A 43 31 21 36 56 B5 40 B8 5E 99 64 2B
 A9 27 85 A4 03 80 12 DC A5 D8 67 A8 AB AC 8E 79
 9C 0B 8A AA 7E 83 EA 23 CF BA 64 B4 6C 53 F3 B0
 CC 21 17 6D 16 16 B7 AC 3A B0 E2 51 05 BA 05 75
 F3 81 B7 FA 9F FF 3F 02 23 D4 E6 6E 35 C7 13 2E
 68 61 D6 BB 54 EE 51 68 DC 20 5F A4 88 AD F8 7A
 A6 75 DE AA 33 10 CC 72 2E 2A 24 6D BB B4 79 B0
 88 D5 A8 09 34 2A A1 4F 2E A3 D8 62 8C 1E 26 1A
 9B 12 CA 4B C8 7F 2D 6B 9B BF A7 89 20 C7 05 EE
 DC EB 01 35 65 55 71 FE 3E 6A A3 19 FF F7 71 2B
 E7 48 60 0D 54 40 44 3B 98 BD 69 AC 11 62 EC AA
 0F E2 79 FF 18 74 CC B8 ED 7B B4 27 40 41 16 99
 6F D2 CC E2 54 AC 10 64 C6 13 3F 42 6C EF 5F C8
 4C F9 95 05 D5 1A 14 D1 38 AC 08 C1 0D 8A AE 88
 97 84 8E 32 28 4F 59 D7 12 15 37 2F A6 06 A8 15
 1D 4C 00 98 97 80 E6 59 A8 47 3E 4F FC 7E AE CF
 DA 37 A7 68 58 AA 87 A6 C1 4F 2A B1 88 15 71 61
 FD B8 C9 20 2D FD CE 1F 95 7D A8 45 9B 70 A9 5E
 EA FE 0E 90 BC BA 2D E7 B3 51 FD 24 B4 E7 AA 1C
 43 F6 A8 8F 32 F6 CF FF 8F CA EC 42 32 FB 02 98
 AC DF 30 B9 D2 7A 79 8B 32 25 06 A3 8B E7 89 D5
 B0 D0 5B CC 75 44 21 30 85 2B 89 5C A6 81 B6 73
 27 A4 3C A2 C3 17 5F 29 18 A9 99 52 9D 23 A8 3E
 F2 D1 4E 44 8D 47 DE 6D E9 2C E2 1A 49 00 C1 7B
 0D E3 BA 38 75 59 3A AB 07 18 1C 23 37 F1 EB 9A
 6E 5A 59 23 33 42 07 94 D9 1C C2 F6 F5 D7 32 49
 82 D2 15 A5 9D 47 19 4C 8B 44 4A 4E AB A0 48 37
 FE 69 28 9D 2D 8B 81 C2 AD 53 1E DE 32 4F 8B 33
 20 D1 51 EC E6 6A 83 99 B4 0E 89 5D 10 1F 00 FC
 67 1F 81 3A A0 D6 08 E8 3D B0 CC 13 3D C2 6E FB
 B2 D3 68 DA 7B 64 EA C7 29 62 0B 33 9B 9C 00 B9
 4D CA 4E A6 1E 88 19 10 B2 60 DF 6E B7 D0 C5 45
 65 CC C4 0D 7B 99 C9 44 EC C0 8C 1D 41 EE EE CF
 A7 82 E8 CD ED 08 3F 66 40 E4 4A 27 90 EA 5D 4D
 4A 50 1B 61 8F 2F B5 5D 7A 82 9E 9E 5D 2C 5A D5
 F9 BF A2 A9 7F CB D4 5F 19 43 72 4B 6C 6B EA C3
 96 30 81 25 A7 13 B8 E0 6D DA 43 10 D5 80 62 BB
 70 BA 65 00 59 57 F8 06 9D AE BA 03 CB A5 E6 13
 6F 2D BD A6 9F 8F 06 7A 5E B0 FB 18 65 F1 EF 6E
 D8 61 7C C4 7B 22 0F 9B 29 96 49 05 64 71 DE C1
 9F 82 0B 63 AE D9 C7 42 0D A7 ED B3 48 51 83 3C
 38 B4 12 33 37 9A 7D 05 B4 5F 83 BC 30 F5 E9 B5
 93 A8 CB E1 9E 97 48 1C ED D8 E1 A2 29 35 D7 03
 C7 26 8A 35 32 20 AA 31 C6 57 06 87 CC C8 D9 59
 F4 6A 51 33 75 5C 25 3D 23 36 22 02 38 B8 CB CB
 13 1C 18 5E CD 67 D0 1C B3 CA 89 25 84 D2 B6 FB
 DB A2 D4 51 A2 0F 40 86 89 0B 95 33 8A FD A8 D7
 BC 4B 3F D7 AE 4A 94 0E 41 75 56 E1 E8 B6 BF 11
 74 96 05 0E 4B 30 67 9C 3C 2C EF E5 81 16 B7 73
 DE 05 D8 4B 56 D8 22 D6 C3 42 B3 2E 25 24 90 BF
 07 5D 0A 0D EE 59 E2 EC C3 60 7F 9E 0A 90 87 A9
 FF 8E 4F FD 22 E0 6C B8 89 91 79 27 F8 55 14 3A
 11 AA 5E E8 41 59 23 68 0E 54 19 C5 37 7E BD 39
 32 2F 9D FA 4A 22 CD D5 E3 39 77 89 B3 94 39 B2
 0D 41 A8 95 06 D8 00 42 1C EA F8 51 30 B7 AF 28
 BE CA 2C 28 03 C7 33 2A DD 4A 10 3E 63 85 ED 0F
 C9 56 3D E3 BE 09 02 35 20 CE 73 7B A4 51 7E 29
 54 AD 92 26 02 EE 67 0A D3 54 5C E7 30 9C AD B5
 2E AA 56 B6 33 DA CC 1E 28 B0 10 D8 EF F6 73 11
 43 FF 6D B2 93 32 41 8D 5E D6 DD B5 19 EF 9B 71
 48 F9 74 2C 74 BB 84 77 24 1B 1C 17 21 5D 2C B8
 66 C4 2F 01 98 27 41 5C 6A 63 99 58 4F 7B 4C BB
 F8 BA FA 47 AE A6 4A D4 B7 50 7A B7 67 83 4A 78
 BF 4A 20 01 86 45 68 56 C1 18 D8 11 9A 6C 9D 8A
 AD 07 CB 14 AD 0D 90 20 CA AD B4 39 12 FF 12 4B
 AF 48 A4 6B 82 D0 59 D6 C7 A5 F1 8B 98 EE 76 21
 39 82 FE 29 F5 27 F4 4E 8D F5 62 51 39 40 A3 7C
 F9 DB 6B 8A 5A 27 52 2C C0 62 6A F1 24 25 E2 92
 BF 53 F9 D0 EA CF 62 67 1F 38 F6 BC 4B 94 64 95
 C9 ED 5B 5A 88 FF 01 F6 E7 C6 CD A8 91 0D 4E CA
 72 FE A8 1B FE 9A 34 17 50 D1 95 0D 2F 91 66 65
 F0 0A 7F FA 68 B1 C7 B1 F4 F2 71 0B EF 40 50 0A
 0A 65 4A 33 63 C0 91 CB A3 90 31 FB 20 C8 5C 2B
 CF 76 B0 5B 7D 3E E8 2A 62 C9 11 55 16 D8 31 39
 95 5F 73 05 82 EB E8 A4 57 09 ED 80 FE 8F 10 3D
 E3 DE 9E CF B6 F4 80 7C E3 34 0E 07 7A 32 9A A4
 1B 7A A0 34 00 A6 A3 99 57 2B 7B AE 69 F5 07 38
 9F 50 D6 1B 81 5C 60 BD 6B D6 57 A2 20 C6 C8 0B
 4C 1D E3 A5 E6 39 12 A0 E6 F0 42 DE 6B D8 C1 CD
 41 24 FB D4 D1 57 08 78 EF 8E 33 DD DB C2 A7 8F
 97 DC 95 AB FE D7 E9 4A 30 9A 29 1B 07 F9 23 C0
 F5 AC 2A 97 EE D4 74 78 78 91 58 E9 67 27 FE 1D
 70 43 04 66 78 E2 F1 C2 EC 9B F3 3A A3 2C 23 3B
 7F F4 B1 67 8C F9 C7 4C D6 7E C0 F5 37 58 2E 4F
 45 F2 50 20 1E 3E 31 B2 56 D8 3E 5C 17 F5 4E 5D
 12 A5 5C 01 DE 39 10 0E 56 61 27 36 A7 B0 BF 71
 5E 82 49 24 4B 4E FF E1 AC 86 E6 C4 7D 57 91 5D
 4F 46 4A 6B 2C BA 3C F1 D6 48 3C 0A 6D B1 C9 76
 3F 14 F0 9B A4 E0 0C 8E BB 63 44 2C FC FD 5D 08
 EF 00 B8 6C FA C0 A7 24 D2 84 1C 8E 66 52 E6 F7
 0F C4 77 80 48 3F C3 BE 14 B5 69 C8 35 82 3D DB
 1B A3 C4 02 57 88 B7 D0 B6 91 C1 B9 55 C1 61 38
 2D B8 47 A5 95 53 45 D7 74 39 68 20 8B 2E 16 46
 B3 FA 0A 0F DF 79 FA 83 9E 3D 66 D2 49 C4 09 77
 9B DF DB E8 4F B5 C4 F5 06 BC D9 EE 8F 91 92 73
 BA 71 EF 38 C2 43 04 C9 CA 5D 07 4A A7 5C 07 3C
 A8 80 63 0C 76 20 7F F4 5C CC 14 14 3C 3C FD 84
 D5 E3 11 7D 7E 97 D8 B9 B0 D8 BD CE 59 D3 94 2F
 61 08 41 97 A4 F8 C4 8D C4 D0 5D 01 3B 0C EE 39
 91 70 1C 26 BD 5D 6C CF 6F F8 29 6A A4 8A 76 A7
 03 51 C6 8A 8D D3 E6 27 A2 97 2A 29 D1 F1 D6 65
 66 7D AD 10 CB 44 B4 35 9E 83 37 D1 25 8B 55 EE
 CF 1E 8F 30 A7 AA 1E C9 BF D4 E7 0A B3 EE 9F 77
 06 AC 91 0D E4 3C C2 D9 C6 DA 71 F2 12 D6 FA C6
 2E CC 81 8E 24 2F 88 78 18 BA 64 99 9F 01 82 9C
 AD 9A 9D 19 A3 19 DD 1B F9 B1 09 9F 34 D7 70 A2
 AE 46 DE 71 E2 85 DC E3 EA EB 34 CA AA 21 76 85
 6A B4 A2 43 C4 F0 6B 72 98 A8 A5 A3 F7 39 B6 FD
 1C 0A F2 F9 B3 27 EC 5B 91 63 B5 78 EE EE 26 08
 33 98 75 47 C0 6F BA 61 F7 07 AF 2C 31 27 7F 12
 1A 4B 57 2F CF 6C 2E 5D 00 9D BA 13 F7 87 22 85
 85 82 38 D3 F2 63 A0 81 22 CD ED A5 D7 9E 81 C8
 3A 7D 8F A3 2E A6 1B 3A 99 E9 9F CB 23 80 B2 D6
 D4 33 B5 CD 9D 7B C4 79 A8 8C 23 68 61 6A 43 41
 42 00 AA F7 58 0B BE 08 93 A5 A8 6A AA 0D 12 C2
 0B 3E C5 1B 0C 95 39 A2 55 FB 8F 52 D1 5A F3 C9
 1F B8 E7 D1 2C 0D 93 94 41 23 20 6B 55 8E 84 83
 8E 41 F2 E2 41 EA 64 41 49 44 F7 24 8C E6 94 A3
 E6 05 49 DE 55 BC 73 85 1C 29 9F BA 14 23 E4 08
 EE 27 2B F3 B5 5E A5 17 6D F3 FE FD 54 E1 2F A6
 04 57 4F 2E E9 40 22 78 84 AC 61 29 6C 57 F2 FF
 5B 5E 6F EF 81 7E 55 10 08 3F DC 62 0F ED E0 13
 A5 FE 5D EB 5A CA 31 F9 E0 B4 1F FF 23 C6 27 84
 94 4F 7D CD C4 82 52 96 C8 A0 3B F0 F5 8A 26 D9
 4D B6 F6 79 A6 0D EE DD 1C AB F1 8F FE F9 FE 72
 23 B6 4F EF 2E E2 10 EB DE A3 85 7B 2F 79 D3 7E
 24 2F 8B 11 BA 19 DD 1F EA B0 35 EF E0 AA 5E 38
 63 A0 4C 54 F9 79 66 FD 05 CD E1 A6 2D 65 74 8B
 B3 A5 19 34 68 63 25 CA BA DF A1 9C 8E D0 35 E9
 E2 7B B2 61 E1 EC 54 6D 8E 1E 99 EB 71 12 D1 A4
 40 49 2A 5E 70 C0 18 E0 04 CB 22 92 D4 7A 3A 2D
 72 6C 8E 09 2B E6 B0 7E EE 63 12 E6 27 DB 9D 89
 86 FC 3B 1C 00 5C A5 C3 29 6F 1B 16 3F 6F 9E 31
 26 41 7F 23 90 3D 72 2D C0 CD 82 A2 F4 63 25 42
 D8 FA 8D 74 E1 C1 27 E5 26 1D 13 29 52 42 EA 4E
 BF 54 7F 01 17 D1 9D 44 14 32 2F 2B F9 42 00 73
 A0 7A 72 8C 67 01 5F AC 27 63 96 BA 7B 12 F6 40
 74 24 DA BE 96 AD 37 65 BA A4 15 AA 00 B9 39 09
 0B 5D B7 45 58 27 24 C7 6E E9 E3 AB 11 15 85 5C
 95 2C 18 C4 3A AE 8C BE 3D BF D5 A3 80 D9 C6 A9
 92 2D 30 C6 72 86 4E A6 72 B8 23 74 FB 33 36 F0
 00 4B 96 84 D8 5B 32 7A 67 8E D5 4E AE FC C8 8E
 D3 D7 89 5D A0 29 67 CE 47 99 10 95 97 8A DF 7A
 BA D1 52 57 2A 47 99 10 FB BA 5C A5 48 43 9B 26
 E3 CB B4 A9 2A D6 25 F4 EB 88 6D DD 0D 92 C8 86
 35 35 55 72 1C DC 3A CC AB A5 67 FA 95 CB 61 CD
 27 15 78 9E 63 2F 66 98 4B 0A F1 53 4E 40 67 27
 72 35 81 3C 4D 49 6F 97 E7 1E 4E 1F 45 28 60 1E
 73 9E CA 21 6D 12 FB C6 7D 7D 0D 27 EA 79 39 06
 AC 2C 8D 20 2A 0E 2F 6C DF 86 40 D8 F7 15 5A 82
 50 3B 7C C2 B0 4A 29 9F 99 22 CB 80 31 28 81 4F
 5F 34 78 97 C0 4F 75 87 E1 DA 0E AC 9E 0C 90 9A
 1B 9A 1C 72 84 A6 5F 48 3C 37 C2 8C 8A 48 6B C3
 18 0E F1 AA 0A 7F CE 06 C9 03 93 94 D1 30 A0 87
 E6 34 A0 EB 65 D7 C4 A0 D9 C2 C9 18 B9 19 EC CD
 05 92 01 67 05 12 85 66 BA 14 65 FD B6 C0 76 31
 16 EC AB E6 FD B0 65 AC A5 72 34 DA 76 CC 72 92
 84 FA FD 95 A7 E8 4A 9A 55 EE 28 81 5C 5F 19 49
 97 2B D4 A8 9B DA 7C 87 2C FB 2B A7 A5 0A 73 4D
 13 20 3B 76 F8 19 AB 59 28 4B BE 89 08 88 66 AB
 65 44 6A 07 1D 84 EE 13 79 1C D9 10 EC 5A E7 11
 92 EF E7 47 D5 5E 11 21 E5 5E 5A 75 47 54 C4 E6
 DD 44 C2 A8 54 CB D9 79 DF D2 67 D5 9F 44 55 C1
 17 48 08 F7 B5 B3 F8 75 5C 4A 1D EE CC 8C AF A6
 13 0E A7 EE A7 90 CE B9 E4 9D 2E AA DB 73 86 85
 A2 DA B3 DE 7E C0 A0 56 68 AB 71 93 B7 DC 59 54
 5B D0 8F 05 13 E3 6E F4 E0 30 31 B9 71 CD B2 26
 C7 14 89 01 22 BD E1 3B 5F 95 8C A1 3F B8 BC 61
 DA 0E 96 08 EF C6 25 EB 7F 7B 0C A5 A3 6F 14 9E
 C6 5E D4 B9 7A A5 3C 5F 35 DE 62 94 17 2E D8 5B
 28 7E 42 0E F8 A5 C8 11 61 77 66 6D 37 C1 7B 3F
 F8 63 E2 14 98 A7 51 C8 AB 65 33 4C 83 1E 67 BE
 A3 ED C2 3D 6D 72 54 E1 EF 02 28 84 50 84 10 D4
 15 37 2A 2F B2 A3 22 65 42 6E 42 80 70 6B B9 7A
 69 E8 0C 4A 04 89 4A 60 FD B8 2B 18 1C 11 D3 68
 33 96 59 97 D9 1A ED 1F 2D 3D AE 73 99 95 4F CE
 CE BC 06 D7 9B 90 CC AE 29 79 FC 3A A3 2A 84 96
 68 A8 F4 65 2B C3 FA 14 D0 51 CD 5E 9B 7A 8E 29
 0F AE 17 C8 09 1A 91 6A 13 79 BF DA 1B A2 44 F1
 70 32 9B 72 92 94 B8 CD 97 C6 C8 52 00 47 62 F1
 72 8B F2 8B 99 7A 3A 88 D8 44 F7 A7 EA EC 5E 74
 0E 7A 09 D8 62 6B 70 A3 67 FC B5 17 B8 C0 1D 6B
 FB B5 4A DA 4B C0 4B 9A 9B DA A0 26 6C 23 DC 49
 9B 62 68 41 BA F6 92 C5 77 BE E6 D9 9C 9A D9 F3
 43 57 0A 9A DC 59 71 24 99 D9 8A EA 42 45 F0 67
 7C 00 D9 BF 35 3B B4 4E 2D 0D E9 8A 22 4A ED AC
 61 43 07 B0 10 B4 B0 88 63 6D 9A 13 87 88 91 E5
 7C 16 08 4A 65 EF D1 FA BA 3C 77 A6 E7 DA 39 E4
 81 97 92 20 BA FD 9E B3 7E 82 E9 C6 51 AA 39 B4
 D1 72 78 B1 8D 37 C7 2E 85 7E 70 B4 B4 C1 25 30
 A3 AA FE 76 CD E0 EE 18 58 C3 EA BB 98 57 50 35
 A2 01 4B 6C 9F ED 57 60 51 48 ED A3 AD B8 68 84
 0C 42 5A 79 4C E9 80 BC CC BB 72 D2 AA FF DA C8
 DF 1E 02 15 78 7B 4E 16 98 CF FC 17 77 B6 D2 1E
 1D ED B0 41 C7 DB 4A 09 FD F3 40 D5 BA 02 CC D4
 BD 5C 0E 86 48 30 96 BB 85 1B 02 1E 6E 66 A0 6C
 62 09 20 D5 33 0B B1 56 1C 0C CA 69 E1 6A 85 0B
 B6 B8 BC 3C 04 B7 80 F5 A7 90 E9 CA 6E 1A 81 09
 EA B8 78 56 3E 7C 20 EF 88 C2 44 88 E8 7A 46 C4
 EB F7 93 74 8A 37 5D DD 8D C3 78 EA F9 86 D8 B1
 9D 51 EC FB 2B 9E C8 76 37 D8 C7 65 10 F9 C1 CB
 81 37 B8 05 7E A0 0C 09 1E 99 DF 40 31 25 D7 1B
 47 A3 1A 2D 6B 81 BF 47 A1 E7 FB 74 8C 0A 8C 68
 9C 59 76 5C B4 A4 26 E4 0F FB E1 00 6D 91 1A EA
 87 DE 45 11 BF 80 4F BD BA DF A0 82 BB 13 1A 95
 12 5E A3 C9 CB 26 E1 89 43 0E 59 DF DE 8B C9 67
 15 C2 1B 42 21 D6 1E F4 1B AF FA 02 0E 92 AB 74
 C0 B3 A8 9C DF C2 64 2D 5F B8 90 25 16 51 59 7D
 76 72 49 20 B3 82 FD 9E 30 1A D6 9F 12 B1 E8 25
 8E 26 68 DE F1 C3 B5 FF FD 8F BC 0A 55 45 9F 8F
 FE 77 EB 11 28 6F 49 AE 5D 8D 66 48 AA 1B 04 09
 6D D7 A4 4D 79 21 78 8D E3 E9 69 2D E3 7F 86 C1
 64 35 67 F9 7C 06 F4 9B 41 B8 18 74 D1 F8 5B C5
 C9 91 DB BD 93 9A 77 B6 6B 74 7A 25 62 E0 49 3F
 70 15 A5 9B 29 E1 3E AF 29 ED 69 4C D2 64 51 22
 BC E8 DC 1A 45 23 CD 82 9A 42 1E 39 87 D7 9C 9E
 3D 47 B5 B4 1D 0B 04 D9 2B 71 49 FF E8 6B EC 28
 99 51 31 16 45 82 91 93 62 3E 36 30 96 7E 4E A6
 A0 9C FB 24 99 28 C5 50 2E BE 21 4B 6F F3 ED B9
 F2 C0 8A 59 32 FB FA 2E 79 4D 66 D2 A1 B8 A2 F4
 10 79 DD 61 E7 65 C1 AB 16 63 7D AE 4A 57 5E 21
 F1 E2 6D 8F 63 5A 04 39 49 12 B2 D2 C5 86 1A CA
 15 D5 4F 7B 67 B2 F9 C1 02 D2 60 AF DD 6D 59 C3
 85 C7 AC 24 2B F2 19 6E 65 21 E1 20 24 F6 8F E4
 E2 D3 C1 FA E3 64 6D 8F 59 CC C8 4C 56 FC 5D 1B
 9A 4A 99 07 9A 21 ED 27 B8 3F E4 89 FE 8B F2 A0
 D0 79 0B 59 19 CA 35 CB AA 70 36 18 A1 1E B3 0F
 E2 A0 36 BD 2E AE C2 82 CD C9 B2 9C 2D 61 82 AF
 93 54 DD 7E E0 D3 5F A5 5E A7 66 4F 39 81 8B 28
 0C 66 CE BC 6F 30 7A AC 67 ED B1 0A 3B 29 1F B2
 8F 35 9A 52 E7 4F F9 62 C5 E5 7A D1 91 E4 FC 86
 EF 70 65 B1 17 B0 4B 0C E0 80 40 84 2B 87 5D 36
 FA 47 51 D0 D2 C5 0B D1 38 A0 3C 19 FA 86 EC 63
 D1 4E 7C 57 8C E5 EB 8E 34 6B 66 90 95 F4 6E 06
 25 B9 33 9C 5F 92 0F 8F BE 63 69 9F FB 1C F1 84
 22 24 8B EB F7 BF 14 D0 06 41 38 98 1B 0F 26 C9
 AB AB E2 F2 B0 D7 81 D7 33 50 9A 71 FA D9 B1 6D
 4C 41 95 5D 75 DA 61 71
* End 108581221 338673992