* LTspice Encrypted File
* 
* This encrypted file has been supplied by a 3rd
* party vendor that does not wish to publicize
* the technology used to implement this library.
* 
* Permission is granted to use this file for
* simulations but not to reverse engineer its
* contents.
* 
* Begin:
 4A 6C 86 09 71 9C 55 99 54 CC 31 EE 78 89 0B DC
 21 61 64 2A A8 67 47 C7 85 F4 B9 FA AF 32 BE 99
 A9 B2 3E 22 30 5A 7C 43 A1 BD 41 38 8B 92 42 6B
 D9 C5 24 C4 8F FF 72 E6 EE 58 E5 9A E9 6A 2C FA
 B7 4D 7D 68 EA 94 BA 2B 0B 99 2F 80 06 EA 9A C9
 E5 25 A3 E7 F0 64 4A 80 AC 6D E7 A1 C4 C5 C5 0E
 AE A3 7A A3 09 CF 03 B9 09 49 1B F7 E9 1D 56 F4
 F5 7E 2C 25 4B 1F 3F 0C D6 A9 65 21 04 07 4C 4A
 D2 0D FF 52 8A 9D B0 11 81 A0 96 17 24 FF 73 D5
 4C AB 54 E5 FA F8 0A 8E BB 24 09 32 DA 26 05 24
 67 BB 2A 58 68 06 04 58 BA F6 49 AA 9D EE 75 FE
 D5 DA 43 B9 BF E0 FF 5C 8D 71 E6 B6 41 60 C2 B5
 6B 2D 1D 21 6F 83 6C 60 24 9D DC ED D5 CE BE 66
 5C 5F 9B F2 B3 9D 56 68 03 B8 C5 F9 EC 89 9E 8B
 FC 6C 3D 9A 73 C6 93 BC 1F C9 B1 40 0A 24 F8 8C
 1F 6F 59 F1 B6 F4 56 FA 3C 77 57 33 E4 4F 5D 9A
 DA 32 6B 01 FD 8D AD 4C C2 EF 03 B5 82 3D 4C 88
 14 9F 67 2E F4 E5 C5 0B DF 1B 39 84 C6 A2 1A 79
 F2 7F C4 36 AC 13 BF 01 0B B6 04 F7 76 A8 78 2D
 21 49 E1 F6 9D F9 0B 79 30 64 D7 76 7A 87 99 06
 2E AE FC 4F 95 08 6D A2 CD 61 38 CA 0D 45 13 A2
 39 F8 63 64 7E 85 6C 37 10 6D D1 7C 77 48 D6 1A
 E5 12 32 7F E9 9A D5 67 CE BD DF BF 44 77 B0 51
 F7 64 E9 D6 0B DB 14 85 96 83 43 3A 2B 65 91 0F
 82 AD B4 DB 77 1D 3E 9A 68 DC B3 78 4C 45 5F BD
 79 91 15 BB F6 8A C0 83 28 83 0A 8A 11 C1 FA 04
 6E 29 44 A0 BE 56 82 65 90 3E CB 5F 6D 35 9C D7
 4D 5F 7B 6F D5 AC 38 2C DB 17 71 AF C5 E7 FE D6
 8F A6 B1 71 B0 93 69 D6 68 4E B7 BD 8F 49 65 82
 A3 83 11 A1 00 3A DD 79 85 F1 69 1F 82 C5 BC 48
 93 B4 BD DC 5C A6 AF 9A 34 0D 5D 94 A0 3A 17 A5
 6D 6E 7C AA 92 0A 4D B6 40 4D 5C 63 B1 68 21 64
 79 45 FC 1A 78 7C 39 3C 72 C8 60 BB 1A 46 5F 36
 E3 2E EC A4 CE 36 9D E3 79 F5 F4 6F DD 66 A9 1F
 1C 53 B1 ED CD BA BC 4D 37 0C 18 E0 7F CE FB 0C
 CE 2E BA CA 21 92 D8 5F 3B 97 85 60 9A 16 DD 01
 C2 50 D9 48 10 38 D7 79 EF 6C C0 1C C7 EC 99 EC
 0A 52 4F 0C E1 65 C6 E3 7C FC 7E FE 31 28 F1 5C
 1E F7 B4 B2 EF 46 97 6D FA 90 02 FC 4C 7F 02 00
 CC C4 8F 78 61 85 B9 D5 96 53 FF 07 41 E2 90 F7
 C3 30 E3 B5 15 16 75 61 E7 33 21 70 50 77 75 51
 26 F6 D1 40 18 79 6F 12 8A 23 00 56 0E 7E 49 F5
 76 AD B6 7D FD 71 31 59 B3 29 B7 7E 73 12 17 A7
 19 91 D7 B5 1B A3 96 D5 B0 5B 72 4E 32 B9 19 2B
 66 FF 05 9F 72 B4 7B B4 A4 A8 05 BF 1A 74 44 13
 17 0E C2 78 06 7D 6B 23 66 E2 D4 F6 6E 57 C5 48
 A8 AC 28 1E 84 0F 0F F4 25 70 DF 58 F0 2A E9 40
 52 BE F2 96 2B 83 D6 67 B9 66 16 F4 6C 83 B5 2A
 2E 60 94 44 AB 31 C9 F5 3A E6 7B 38 78 83 59 F3
 9E 5C 8D E1 79 F0 CB 7C D5 28 69 84 0A B6 E8 AA
 AF C5 06 9F 3B 8E 5D 84 B9 52 CD 67 02 95 BC 81
 F7 24 47 BF B0 03 6B 1F 29 69 AF 37 43 DD A7 7B
 42 08 B2 E2 E9 DB 92 D6 4E D8 68 FA F0 F6 69 A2
 70 34 24 24 91 D6 EA A0 12 A9 09 DD 23 DC A7 9C
 D3 E9 3B 54 AD 84 E5 C6 2E 37 B5 8B 91 46 4D 9B
 75 33 70 4B D4 3A 47 EA 6C 7D B0 64 35 01 B8 A0
 E9 B2 50 84 E8 D9 8E E5 B4 BE F3 47 77 F2 B6 75
 67 D7 63 5F 45 87 1F 63 CA E8 86 E1 30 08 DB C9
 A9 95 E1 CF 50 18 B5 AF CA 80 E2 DE B5 D7 02 22
 4D 73 E2 AE 7B B3 AF 65 80 2C 1A 40 F6 9A 39 D6
 23 2D 55 05 5F 0B 16 60 EA FE 81 77 44 B0 35 09
 BD 9E 17 9C 09 8B 85 47 7D D8 64 40 39 AB 2C D9
 C1 C4 67 C3 37 8A B4 F4 79 08 C8 36 05 DB 35 DF
 D9 1C 49 40 FD 66 68 88 1A 45 33 7F 91 EC 29 EA
 C9 D0 95 9C 2E EB 89 8D 05 1A 0B DC C9 8F D3 67
 F5 5A 1F F0 20 4A 27 28 B1 84 4A DF 6C 34 27 C0
 6B 21 41 DE 9C CA F9 E1 71 C1 47 E6 CE F1 E5 BA
 C5 CD 29 A5 5F A1 9E EE D1 FD 1D D6 77 07 53 D4
 2D 1D CB 6F 19 F0 25 25 28 C4 BF CE 15 CD 9C 58
 17 FC 7D 83 FC 3C F9 20 19 68 FD 57 7F 5F 8D 6F
 07 50 CD DD 9A BB FE 04 63 2E 88 CE D0 24 E1 BC
 40 B6 8B 70 CE B1 6D 7B 52 DB 32 59 61 9A 4D 54
 26 D9 2F 73 FC CC C0 9E 29 DC FD 9C 6F 07 6F 3C
 66 34 34 B7 3F B1 B0 54 7E D8 39 10 32 86 60 E0
 CD 3E CF 88 A9 64 A3 9B C8 CC D0 3C E2 01 68 B7
 AC 75 49 43 44 F6 A0 F9 E3 65 ED 26 85 D9 82 EA
 6D D7 8B 85 AC 91 6E B7 32 0B 88 68 38 6D C1 A5
 83 35 EE F7 1F C1 3E 9A 01 88 0E FE 3F F0 89 CB
 3D A9 7C 7B BF A7 D9 18 EF FF EC C3 8F C5 76 79
 AD 2F C4 A9 5B AA A4 3F 6C A7 90 19 82 DE E8 33
 9F C8 32 D0 4F 72 74 13 DB 28 10 4F 26 41 1E A9
 9C 46 03 E3 5C D7 B5 DC 4E 63 AD 8B 2C 4E 98 48
 A4 27 8E FA 45 EB 10 CA 7B F3 E6 14 47 63 5D 36
 D5 09 BD B3 C7 91 B7 17 1B 44 9F A9 97 D5 C2 5D
 2C 66 A3 EA 43 77 DC EE 72 DC 89 15 0A 5A 02 A2
 E8 23 B1 8C EB 66 40 A8 63 B5 C0 43 99 3D B3 C3
 60 9D 42 DC 38 E1 8F 99 A8 00 89 02 BF 12 9A 22
 9E 80 65 6F 79 12 87 CE BB E4 2D C8 28 A8 34 68
 AD F9 66 86 38 CE 4F 48 48 36 C0 CE 9D 7A 6A 2A
 45 A1 37 75 A7 A7 05 5D 73 93 B2 56 9F 77 EC D6
 AB 46 02 28 2E A8 BC C2 5E 96 D1 37 B3 74 4D C0
 CC 3B 69 DE 8E A1 D7 92 AE 8A EA E5 3E 16 54 F6
 9C B1 15 F7 74 3E D8 78 2F CE FF 1D 33 79 90 64
 AC BB 32 C4 D2 B7 B9 CC BC 6E 8C 60 DE 02 F8 AE
 25 46 FB 63 B1 E8 51 72 7F 13 D2 A4 60 26 1D D9
 C4 03 32 EB AC A9 19 38 08 D1 37 27 1D 92 A1 E5
 55 F7 27 BC 33 F3 C9 68 19 86 C5 55 3E 10 7E 68
 34 54 EC 67 9C 33 B1 9C 33 F0 AC 9F 7C 85 A8 D4
 F9 65 95 EF C1 48 47 B1 6F C9 C1 CC 3D F7 64 FB
 86 C4 18 60 AA D9 C9 47 18 C8 2B 9E 29 7D 61 89
 0D B4 0C EE 65 54 C4 47 A8 82 CF 7E 25 57 01 E6
 CD C1 1A 80 2E CA EF 8E F1 40 4F DB 1C B9 BE 00
 8C 9C 4F 64 96 6C 68 D9 12 BE 47 33 31 4D 34 3F
 C1 D8 5C 84 72 29 7D 6B D5 12 4C CF 05 9E 10 2B
 9B 16 5D 45 16 03 6B F4 3A 8D B5 BD 69 C9 DA D9
 2B 6A BF C6 97 35 5F 20 DF F2 FF 11 A2 A2 86 40
 D0 47 B4 EB B5 D7 0E 83 1D 88 05 6C 5F 6B B8 F5
 0F 2D CB 1D DA 16 4F 19 01 4E D3 90 70 54 23 5E
 6E 75 16 82 DB 0B 5F 28 21 6F 57 87 4E E3 A2 CE
 F8 DF 3F 86 71 26 81 14 1F 50 81 F4 A0 D2 DE E0
 6A 9C CC D6 5F 29 5A D0 90 9E DB 94 F1 83 D9 CB
 19 59 EF FC 14 E6 73 76 D9 6C C6 3B 05 8E B1 0E
 3B 0E E3 8B CB 7D 52 DF 43 D6 EA 07 EC DC DE D9
 0C EA D8 E7 D9 79 D9 2B D3 72 EA 3A 4D AC E5 F4
 6C 88 BD D2 14 36 A3 E2 EB 18 F1 8D 1D 7B B6 ED
 0C B9 7E BB 58 9A 0E D1 7C 95 DB E3 56 CC C5 0A
 8D 6A 4E AF 38 60 F7 3F 62 E8 A6 D4 5E 5C 45 46
 18 73 81 3F CE 4F 93 9A AC 6E AE E5 30 CE 26 E9
 C7 03 B8 F5 F6 F4 1E 19 6E 37 1D 38 9F 9C A6 11
 4C D5 07 2A EF 47 27 CB 62 9D CB C3 F1 52 7E D9
 60 9C C9 7A BD 1A 5F B9 08 84 58 B8 8F A6 94 01
 54 E0 7E 0B 5D 61 65 D6 90 DF 53 28 B2 C4 89 13
 AA 2E 0C 11 08 F9 A7 88 F8 8D 03 EF 97 3C 3C FA
 60 61 E1 E8 18 4C 6D 48 BF 05 3E AC F2 C3 26 6E
 D7 36 70 DA 70 8E 8C 81 13 71 DD F6 2F 7D B1 27
 99 05 E5 2B 90 64 2B 1C 75 E9 09 9A 7B A1 CA E8
 B3 F9 66 F1 6F 66 58 BC AA 5E 91 BE 58 A8 BA 04
 D7 0A 4D 37 9E D4 5C 6D 31 FD 6C 4C 40 06 53 5D
 26 FF 21 C0 7A 7F 43 39 C5 BF 60 89 76 B0 4F 5C
 4A 2A A6 D2 27 4A 36 CB DA 5F FB C8 E7 0F 93 1B
 48 6E 55 13 C3 DB D8 BE B0 62 FF 7E AF 20 8C C4
 67 E0 60 48 07 8C E9 BF A9 2F B0 16 7C 9B F2 2B
 90 A0 36 7A 8F 71 AD 30 13 48 E0 08 94 59 C2 44
 8F 6B B4 7B D0 4C 44 E2 12 FD 2C 67 DC 81 DB 45
 EB 8F 10 E2 0B ED 77 2E 8B 3A B1 A8 09 0F EB 21
 78 30 D7 F9 51 0B D0 69 2B 15 E8 26 C8 C4 48 61
 55 1F 38 BA 6C E1 8F 87 99 5F 83 FA 35 30 DD A1
 A9 E5 C3 D7 A6 73 FB B9 B0 31 73 03 BD E3 51 4B
 7B 90 84 54 48 6F 81 EE 26 60 D1 A2 4E 05 77 24
 C3 DA 9D 58 DA 0D C7 00 06 61 9C AF 1A 99 26 AB
 FD 29 7C 1B 03 D7 52 13 60 BF 97 14 A8 BC 1E 28
 7D 17 47 6E 26 AF 1C 10 FE 0E E6 8E 28 C7 62 7F
 17 55 25 0F 50 B2 9D A0 BF 1A 1C 59 97 6C 28 1F
 19 3F 6A 7E 45 AC 7A 3A 94 43 2A 9B 94 6D 74 4E
 2A 40 0D 42 86 D1 9F BF 0D 8E 22 97 08 EA 19 CF
 8D 4F 5B F5 C3 7D CC 3D E4 4E AF 71 47 2B 9D FA
 09 0B 6D 2B 86 B8 BC 88 C2 21 D7 AA 2D 05 A7 33
 E7 8F EF 8E 63 A2 27 27 10 BA 1F 5B E0 53 F0 A9
 49 FE 64 26 BF 18 B8 21 80 18 CE 1A E9 DB E6 B0
 73 A2 33 8B 7F 35 D9 6F 7B C0 1C 7B DC 25 1B EA
 77 1D 0F D1 C3 BC F0 99 2C 34 2F 71 16 C1 70 D4
 B2 1D 6D B7 20 99 6A A5 97 75 06 CB E2 72 D0 38
 C5 E0 7E B7 56 5B 23 98 59 48 99 2A 55 C5 4A 0A
 5F 4E D1 50 71 29 F1 98 34 A8 23 0C FB 6C F2 9F
 93 62 5C B5 09 E4 C1 3B 4D 93 8F 1A D8 C3 8B 69
 A0 55 39 18 27 05 80 1B AF 44 0C A5 3D C4 91 F8
 36 4D 4E 5B 50 4B 1E 73 07 DF 51 60 62 38 1C B8
 E1 65 DD 0A 0E 6A A6 2F EB 13 2F 6F D7 C8 E0 02
 1A 59 FF D5 50 85 6F E9 D6 B9 1B 7A D6 7D D5 C2
 11 5D B4 53 54 81 00 FA FD 06 99 FC A0 A5 3E 7B
 B9 58 F6 2C 31 86 51 B0 00 27 C6 7B E1 8E 69 C7
 5C E4 3A 7E 92 0D 09 6E 8A 6A 76 66 AF 5D B2 BF
 51 EA C3 8F B2 4C FC B1 13 FE BD 6F 7D 28 F3 BE
 DC 60 68 6C 1C 52 5C 69 69 72 80 36 74 3E BB E6
 0A 78 87 A4 43 40 3B 1F 79 0E C1 84 88 F2 76 25
 8A 27 1E 40 6A 86 A4 7B 63 19 33 96 D2 BB 65 75
 3A D4 5B 48 4A EF 38 3D 18 70 D2 B0 22 73 62 58
 41 28 8E 31 13 BF 5E E3 80 BC FF D9 0E 63 EF AC
 43 0F D9 A6 A0 47 22 C7 F9 33 90 9F A1 71 4E A3
 3B 29 F8 8C D3 4D 8A 81 C3 29 DC 0B E7 CC 3E 5B
 AD 82 A2 C4 59 29 07 13 E2 E0 8E AE F6 61 C7 DC
 A1 B4 CC 36 C3 15 D5 96 BC 94 9D 0B 28 18 85 39
 54 A1 6A 86 71 48 8B D2 96 C7 FE 79 1B 45 84 B8
 65 78 13 70 09 0C 13 18 76 4F 05 5B 14 89 B8 78
 93 0F 0B 2A A5 B1 13 54 31 58 70 21 7A 76 56 E3
 3D 41 BA 41 39 52 C7 6B 0D F8 4B 03 DF F9 CF 2E
 2C EC E4 A5 27 CF C5 4B D5 14 26 BB 4A D4 DB 42
 2E EF DD 45 D7 F4 CD C8 87 AA 05 C6 A1 55 F8 30
 1B 7D 43 CB 01 B2 51 E6 EF 76 2B 69 FC 2D 24 B7
 57 2B 2B CD 1B 29 04 5C A4 68 FE 2B 2A 5F 25 16
 A9 A8 35 9D A6 FE 71 67 4C DC 67 CC 82 90 DD F4
 11 4E 28 55 3D 85 58 35 F1 6E FC 7D E9 0E 9E ED
 3D 1E 0A 86 B4 97 C0 6A 8E 1F F2 2C B1 D8 6E AC
 13 7A 74 B1 CA B0 C6 B2 DD 66 ED 86 64 18 10 4B
 2F D3 0C 64 65 C1 68 25 18 3F AE 62 FC 32 BF 71
 D7 30 19 33 0A 61 E7 45 72 86 7E 39 06 AB B8 7C
 87 F1 6C 07 13 F3 0D 3A 10 20 8B 3B 1D D4 73 0F
 27 BE 8C 27 B2 FC C3 AB 88 51 98 2B 63 A1 25 AA
 61 8E C4 EF 0F A2 4B 5A 84 8E 45 CA FB ED 09 87
 CE BE 72 7C EB 5E 14 2C 86 3B C8 9C 04 BD F3 B5
 F9 AE EA B4 1E 17 C8 D3 3F AF 4D 0A D3 4B 14 C3
 2D FB 90 30 71 4C 34 8D 8C 32 AA 2A 53 AC 4D 90
 AA 7F 04 FD 01 97 56 92 17 47 AC F4 FE B3 D7 E5
 2B 11 E9 A9 66 5A B2 80 FE 57 1C 3D D6 DB 9F 35
 30 BF 46 79 0B 44 DA FB 4F 4D B4 92 A0 A5 C0 F1
 61 35 B3 73 41 5E 7D 23 69 D8 D7 F6 9C EE 03 53
 84 B0 74 49 F2 6B ED D7 0F 9D 2E EE 50 D9 59 EF
 B5 C7 FD 04 80 F3 07 A5 56 CE 22 BE 5A 49 AE 59
 FF 8C 0D 2E E3 EF 57 E3 42 BD B3 4C 29 AE 73 59
 B5 C8 BA 6F 4D C8 3B AE 9F 93 88 5C 63 B3 9D 38
 45 5A 9C F2 A9 07 32 9F B2 46 76 9A F7 37 E3 A4
 41 56 B3 F8 B0 88 7C AC 93 A4 54 24 27 68 1F 63
 5C 08 2C 43 DF 55 69 3F 88 61 40 7D 73 E0 BA 45
 2B 6F 34 6B 56 4F 2E 29 27 E6 E3 1C A7 73 6B E8
 A0 FD C6 F2 7D 89 87 D0 F1 C9 95 DE 53 39 DE B6
 BA 53 9B BF F5 6B 31 27 61 CB 57 62 4B CA AA 64
 E0 6E 16 3C D0 29 03 B2 A1 77 BB 74 1C 45 A5 3B
 DD 92 3B 8F F9 55 17 F6 64 18 53 14 A5 BC 7B 00
 A3 04 CD 1F 22 71 73 7D 68 F1 E8 D6 D5 67 86 81
 E0 D2 70 EF 22 50 DB 34 28 84 C1 8E 34 D5 2F 0D
 F6 36 F2 94 4B C0 2F F2 51 EC 00 D0 0C C9 0E 3D
 0D 48 92 BE A4 AC BA 78 5F 16 55 72 76 46 36 82
 BD 5B D3 DC 0C 90 F2 52 A4 BE 86 27 95 FD 11 3D
 86 8E EA F6 91 1F 34 32 2D 21 19 41 FC 69 D5 37
 11 E1 97 9F 86 53 CF 93 60 A1 57 17 30 11 67 61
 AD 0A 95 47 27 42 82 B3 40 05 68 B4 15 EF AC AA
 8D D1 77 26 11 09 46 DE E7 8F 23 4E D0 25 C3 A0
 BA 5C AA 28 A1 C6 60 E5 7B 85 7C AF FF 54 30 70
 6D F8 1B 7E 5E 42 A2 7B CF 0D 47 1D 11 11 5C A0
 81 95 15 BD 80 6F DA B2 89 77 E9 26 A0 17 15 82
 B5 B6 11 F8 25 25 02 CB 85 EA 91 CF 10 9D 34 B8
 0C 18 D0 13 89 36 4C C6 0B DC FF CC 7A AD 34 D0
 40 33 F0 E9 3E 89 3A B6 C7 66 62 24 B2 7F D3 FD
 93 76 BE E1 80 74 71 95 FB 88 81 44 F5 18 11 D5
 87 EF A8 47 42 5F F3 49 E5 40 A3 A7 93 59 5E 4A
 D4 9D F9 40 17 40 BB E6 AE F5 6D 70 F3 98 08 CC
 73 0D 1E AE 48 42 8D F2 90 DB D2 41 A1 2E 84 A9
 11 34 7B 3B 49 20 39 68 73 73 D9 F6 73 9D 50 A6
 8C E9 81 52 25 7B 81 08 FA C1 AB DA AF 28 0D 19
 82 19 FF 83 FC D3 C9 36 ED 76 40 AA 0F B9 B3 52
 36 FE A1 5F 3C F9 D0 19 BD B6 92 CC EB 48 69 C3
 21 7C 75 11 DE 30 E6 EF A8 09 D0 74 93 F9 F8 06
 B8 74 AF 6D 0F 7A A6 8D CD 38 57 A0 5C EC F7 C3
 9C 68 38 F0 52 0B 66 A8 F7 A3 6A A2 68 8D E1 7D
 0D CB F7 40 87 53 D5 DC 0B 1C 7B D2 B3 D8 E8 42
 81 6C 68 F9 81 29 94 E6 C7 A7 4D 73 AF 46 A1 D3
 6A 0D 98 BC C3 DD 03 AF A6 1D 08 B7 00 62 22 5C
 E7 A5 0D 1F 6C 24 73 7E EA E4 8F 38 E9 27 DA 43
 7D DC A0 10 75 4B C7 50 19 CA 5D 65 72 88 ED CF
 A8 88 85 80 F0 EC 98 78 14 00 3E 1D EE 9F 37 72
 4F A9 56 EC 9C 02 09 C7 46 EA 57 10 89 CF 03 26
 B7 B3 76 DC C6 0C 4C 8D 60 2E 0A B8 DF 7E 4F 30
 5D F8 3B 22 1F B0 EF 36 B6 1E 81 7C 67 57 71 96
 97 4F 7D B5 27 03 08 9F DD EF 13 F2 8C D0 88 6D
 EE A2 99 32 68 C6 FF 9A CD C7 FC 1B 03 3F B5 10
 F5 A7 64 9A 3D 6C D7 D2 FD 62 75 4D BD 00 9F B6
 A8 48 88 A7 6E BF EC B0 50 8F 43 7D 47 2D C9 7E
 E6 13 E8 62 2E 34 24 64 0C E8 CB 01 F1 22 16 EF
 03 4E 33 3B 0C F9 C9 2B B8 2A ED CF 17 57 05 D9
 AD A7 E2 0B 82 48 AE AF 67 1D 93 B3 97 94 66 8B
 51 C6 A5 05 0F 91 A4 D5 15 A0 CE 41 05 B3 F6 9B
 59 30 1F 42 E7 52 1D 97 C2 A3 51 AC 1B A2 DE C9
 25 01 BF 35 EF 08 2D 2E 28 26 B9 A1 FA 55 0B 07
 C6 B8 64 07 E2 AC FA F4 8B 09 A6 68 82 8F 7F 1E
 58 77 88 4C 83 E0 F9 BA D7 32 64 04 18 06 A1 FF
 01 14 33 BF 69 04 A6 15 C3 36 69 BF 08 18 FE F9
 57 DE 18 5A 6C A4 3E C1 2C 07 DE 6D 50 5B 7A F2
 1A CF 19 A4 C9 D9 39 6F 20 55 39 4E 7E CC FD B7
 14 0C 9C 43 53 41 0B 6D F1 87 BA AC BC A9 E4 37
 E4 CC F3 B2 7E C9 8C 71 37 46 51 6B E6 E6 86 1D
 51 B3 B4 FA 8C 3D 4D CB 41 AC 82 FD E9 89 90 58
 0E 49 16 B2 19 DB 52 9F 97 D8 E6 EE 59 44 3C 81
 DB FE 6C BA 1D C7 20 12 5F 92 33 02 09 13 E0 6B
 A4 FC A0 99 93 68 87 48 2F 35 19 B1 E7 FB 46 A3
 C7 12 BC 39 F2 47 9C 57 3D 99 3C B3 BF 72 8F DB
 80 26 34 B5 0F 0D 07 1A 31 02 24 F2 E5 11 87 05
 FF 38 AD D0 F5 78 78 2C 14 CD 3C FD E1 74 0E E0
 50 57 BB 96 93 D9 AB 46 69 2F 03 29 62 63 CF F9
 CB 13 AB 2E 31 74 EA C8 4D CE 1B 43 73 01 DC DC
 0A BE 89 BF 14 A1 70 79 6A 78 02 E3 2E F1 76 27
 8D E6 3C 1F DA F9 A0 28 C6 B6 80 B0 CC 95 AA 0C
 C8 05 84 01 2E CA 30 6F EA 7C F6 8B 7A 69 49 6A
 2E 5F F0 CD 7F 98 A0 24 8C C6 E1 AE 16 70 72 C5
 B8 4C 54 21 B7 6D 88 50 1D A4 CA EF A7 37 43 9F
 AD 36 70 0F D0 D1 4F 6C A2 32 9A B3 1B 33 5B B5
 BC F7 E8 A4 48 43 EA 84 C1 4B 04 B2 F8 92 B2 68
 9D D8 EA 1D 16 CE EE 84 27 35 B1 52 35 C6 86 33
 FA D8 3A 80 08 D6 A0 DB 0C 7A 28 0D 42 23 92 AC
 91 96 9E 03 D1 AE 80 61 21 36 0A 40 67 28 EE FE
 53 3C 7E E4 00 9D CA BD BC F2 DF EE CC 76 37 65
 1A 18 3C 8B 10 65 8E AC EF C8 23 10 F2 03 75 8C
 97 74 62 60 CF F1 5E 9B E6 4C A8 DB 28 D1 E1 46
 92 44 06 A4 C6 A6 BB 66 5A B0 45 CC F5 EE 40 BC
 F1 6F 0D 0D E2 71 86 95 A0 DD 68 34 DE A4 DD 2A
 C7 50 C2 48 BF 00 83 9C 24 16 E1 07 EC DA E9 6D
 1E 10 B9 06 81 CC D7 8A F4 8A 94 BE 17 0D 42 78
 3F 11 D2 7C 06 AF 29 E5 9A B1 71 2A 6D E2 6E 4B
 B5 8B E5 B5 07 2E 12 4F 67 4A 30 45 46 72 8F DE
 2E E4 96 FE 6F F6 C4 50 05 92 4C E2 B0 24 0B 30
 EB E7 9B F3 A5 56 63 63 EC 29 ED ED 42 7D 86 F9
 DD 91 3B 28 00 12 5D 9D BB E3 22 D8 B6 1C EE B8
 30 3F 92 C2 76 A9 A5 E2 53 DB 7C 91 CA FF 69 EB
 9D C9 E9 39 E4 FA F6 CD 29 41 94 22 A9 F1 79 B4
 97 8E B5 91 F8 09 06 B3 E3 BA 2B 59 C2 79 F9 A3
 66 8E AA C2 40 DA 17 59 96 18 A6 3A 3E 3C 9B CF
 E6 1B 9E E2 CD 02 06 1C 4F 06 DC 27 ED 31 CE 4F
 D2 9D 47 C0 EC BA 04 3B 41 7C 92 73 25 6D 37 DF
 00 C3 D7 94 21 7A 2A D8 2F 8E B2 28 A3 5F BE E9
 B9 B6 DC 79 84 2D DB CD F9 C8 50 43 CB 7F 29 85
 C1 CD 61 75 ED BC 25 90 F5 D6 E5 80 92 39 DE 35
 9D 43 A6 19 4B A0 47 75 21 EF A1 4D 93 D5 FA 4D
 37 00 E6 B3 39 DE E6 46 B8 E7 7A 48 FD 6C 24 51
 A3 54 8B 06 1B B3 34 D3 71 3B C7 2A F0 0E 0C 00
 AF C3 58 CD F6 22 F8 F2 6F D2 00 9B DD D3 EE 92
 E3 E3 34 8A 02 3A BF 74 9D 5B C5 78 B5 60 63 38
 AE 4F 91 1A BD FF 4B AB 3F 6A 05 BB B6 57 19 3B
 FB 7F 68 E5 09 A7 4A 63 AD D7 C2 C9 F5 31 E3 45
 96 1A 27 1F 4D 38 1C FC 34 3D 5B EC 92 0D 8A B5
 EF 89 3A 3C 93 EC 7D E1 D3 C7 49 4F BA FB E1 55
 06 7C 32 A9 A2 40 5B E1 D1 13 D3 E1 5E 33 EA FB
 72 1C 98 19 60 6B 26 02 D1 F3 6B B6 85 77 5F 26
 34 82 0D 45 8C 9E 41 CB 0B 59 99 68 F5 37 B8 14
 94 7C 17 24 18 56 F6 CF 22 CC 00 E1 99 D4 82 E0
 0B EC 85 48 AF 8A 80 D5 A7 58 6B C0 B6 BF B5 A9
 EC 7B 2A F4 C4 FB 3E 14 0F BB B5 1A A2 33 72 CF
 4D 5C 75 ED 27 77 BC 10 1E 9A 1D E9 35 13 8C D1
 71 6F 9C D6 D0 AC 6F 9B 1E 73 C4 F8 6F E0 B4 80
 AF 61 F8 08 D5 5F AC 47 5B BB 6E 59 03 52 C3 A3
 8D 41 1F 33 2A 7A 6F 44 97 73 53 21 23 79 73 CF
 73 94 E3 A2 BA E5 FD BF 86 C9 FF EB E6 16 2A A3
 DE 02 4E 5E D3 F7 07 49 2C CB CD BD F3 15 02 F5
 21 9B A9 A2 72 D0 13 D6 C1 30 3F 71 6C FF 7D 70
 ED FE 2B 34 B3 8C A4 6A 0C 08 16 74 3E 06 CB 8F
 89 57 D2 3E 3E 76 E4 4D 28 D3 D5 F9 5B 2E 4F BD
 9A 5E 4F 22 21 21 3E AC 48 E6 55 DD 22 BC EE 63
 10 1D C2 99 19 74 CC 21 99 D1 A8 FA 62 77 F0 B7
 60 4A 9F 90 70 17 F3 86 9E 66 68 A1 6F D9 E8 C7
 17 4A 5F D2 7C 5C 69 85 4E AB BD 7A A8 A1 F9 CD
 2C 6B 31 4D B7 44 AD 2F 2E 7C 9A CF 17 4F B6 A8
 D4 AF F8 E6 63 F8 22 8A 5D B5 C7 F8 B8 6C 78 9E
 47 3D DB F0 E4 E7 79 A5 25 3D BE 87 B9 BC 40 7D
 7B 9A 06 9B EB D8 A4 50 AB 31 75 5D DD 3A 72 61
 37 0E E5 82 E9 3B FE C4 6E 88 86 87 C7 54 00 F4
 97 ED B5 BD 1E 23 88 C2 B5 4C 41 0E EB C6 FC 7F
 A5 51 43 29 39 47 54 4B 95 B0 96 13 CF 60 2B DB
 43 2A E7 4A 4C 91 7F 2D A0 92 2C 48 61 44 A3 BD
 4A 48 42 E2 ED 4C 17 85 65 95 C3 CA 49 BD EF 46
 DB 05 68 FC 52 B0 41 58 08 C0 67 59 B1 EF E2 72
 98 85 BC C8 82 7C ED 70 91 0E 89 9C 48 10 6A B7
 F3 98 3D 3D 38 D5 11 D9 95 B1 FD 90 0C E6 23 C3
 DC 2F DD F7 AB C6 20 98 FA A8 CE B8 77 0B DE 1D
 80 AC 96 9F 05 4E 2E 61 3D 54 EB 54 D5 DA 37 7A
 4C DA AA 03 A1 EA 81 1D 11 2B B7 D2 41 9F 61 D9
 EE 56 F5 E6 29 62 A9 38 CC 19 35 B5 13 6D 39 6A
 E4 83 BC 44 84 04 5C 86 25 13 77 C4 79 E1 76 72
 4B 03 B9 AA 50 8A 01 44 58 5B 02 8B 7A 03 9C 63
 E6 65 30 A6 3D 14 D9 EA 55 4D DE 16 B1 AE 2D D1
 49 B1 4B 0E 40 6F FC 5B 84 93 1D 21 31 BB 47 23
 30 45 D5 BB CA EB 5C 92 FB 4D 9C DC 1D F3 82 58
 FF 62 3D B4 CB E6 83 8F 37 D1 16 A8 00 46 7B 66
 11 0D 9E 8B E4 87 EE 42 8E DE 9B CD 41 94 E0 89
 45 36 94 E0 0A 73 8B C8 8A 60 9A 74 64 88 F4 ED
 EA DB F8 C3 D9 A6 E7 25 D2 82 2F B5 6D 70 98 42
 98 83 9D F8 61 04 51 1E 17 25 17 62 0D 14 72 BA
 0F DB 5A 0F E8 E4 E9 64 77 53 37 F2 51 AC 97 05
 5F 8D 91 73 AE 2E 08 90 58 3A 61 87 A6 45 0C 40
 AC 95 9D 17 6A 11 D1 BA 96 E7 92 C5 76 D0 8E BB
 77 50 AB 94 92 5B C7 BA 00 F2 85 F7 10 5B F0 7E
 F8 10 74 85 AF C7 EB 8B E5 5F E4 D7 0A DF 81 34
 29 3A 9D 11 78 CE 8D 5D 40 4F C2 F5 D3 00 31 D4
 18 1D 22 1D E3 BD 9C 38 17 B8 03 82 16 1D 9A CE
 DA AB 0A 2A 5D 90 00 24 2F C8 73 0D 86 0E 80 C3
 B7 72 22 29 D3 3D B0 E1 C2 B3 A3 06 04 36 98 7D
 6F 91 70 23 9C 21 D0 6A 08 09 6A 07 A6 E6 2E C6
 0C 5A FC 10 65 D8 5E 27 35 DD AF B0 8B 9E BA 40
 CB 8D F5 77 D7 42 7C FB F5 74 32 1F 02 1D D4 C9
 F2 D2 17 B4 97 FA A3 21 99 BB 58 DE 3C B1 8F 7A
 22 3C A4 BD 00 4C 64 FA FD 7F 62 A5 30 D8 41 AD
 D0 47 D9 4D 5D BA 44 2A 35 DD C0 06 A6 97 7B 78
 38 2B DE 98 EF 1A 4B D0 6A D9 9E 64 44 08 E1 94
 AB FD 48 02 85 BA 11 08 2F 67 AB 4F 48 54 F3 FC
 5B FA CB 67 79 D3 03 7B 14 97 1E 8F 67 90 4B 27
 4D 46 88 37 69 63 16 D9 20 75 8A A5 DA 29 B8 B5
 3D 27 F1 9F 9C B6 FF 53 FE A8 C6 30 C8 82 38 42
 A0 DE D7 8F D1 1A 11 36 12 68 3F BF 8B 7A F9 89
 48 FE 42 9C C7 F8 EB 46 3B FF C1 06 12 C2 61 E1
 36 73 05 41 13 23 B1 B5 D6 06 3B 9A 66 F9 2F 65
 BE B6 4F 43 F5 0C 18 0F 47 13 FC D4 D1 AD 4F A3
 C3 6D 60 DF 77 5B E4 D8 8A 35 F5 10 BD CB 5E 80
 93 BA C3 43 D2 78 19 64 18 3E 15 04 1C 29 AD E8
 BA 1A 03 5C 67 A5 5D E2 E5 F2 99 34 50 E4 DA 9E
 B4 31 CA C4 F2 9D 10 34 6B 27 8D 62 0C 63 29 BF
 6D B3 EB 07 2D 73 9E 5A D5 DD 54 B9 34 41 3E 0E
 FE 65 70 01 ED A5 7F 77 30 98 73 7D 7C A1 65 4E
 AB B7 1F CB 12 DC A4 90 14 8D A4 8F 3F A0 ED 95
 52 FC EB EE 5C 70 B6 B4 6C 97 9A E0 BB 48 38 F8
 D6 66 7C 5A AF C0 A2 BB F3 B8 54 8B A5 FF FC 3A
 37 62 FD 2D 4A 68 0D 94 A8 51 E7 CF 16 54 3B 0A
 16 66 2B 2F 4B DA 12 E7 2D 46 A6 CC F0 66 AE 8C
 35 62 00 6C FA 53 05 1A 89 B4 18 91 3E 17 CC 61
 04 EF B8 FC 0E A6 14 1C 77 05 E8 55 F3 BF C5 09
 13 07 BC E2 00 13 17 3A 6B F5 29 CB 9B 79 B9 03
 CA 80 F5 27 E8 64 30 3E D0 BA C5 20 AC 31 58 58
 92 D8 7A 12 38 56 C1 89 DF CE 00 F3 7E 1D B5 2A
 9E 8F 85 C3 22 C1 4F A8 BF 2F C9 83 79 C9 65 83
 4D B5 43 FB C4 EF EA 15 83 02 E0 E9 41 D1 72 D5
 91 4C 7F 9D 74 CE A8 5D 24 D4 5C F4 48 CD F7 D5
 1B C6 36 1A C6 82 72 BF 56 04 47 8D C1 6C EC 08
 38 08 06 26 B1 98 A3 B1 D0 57 60 74 90 06 E2 AE
 0A FE 5E 98 29 86 2B 36 35 A7 3B BE 76 83 66 64
 00 65 9F 33 C8 7B 8B AF 3E 26 49 59 5B 26 A6 FC
 B2 F9 38 31 1B 3D 38 1A 0D 6F 44 E3 9D CF DC E7
 90 FB 0F BD CF D5 BC 60 B8 89 20 B2 55 0A C4 D1
 F6 1A C4 D6 25 89 46 3F A3 56 74 74 D4 A3 3D DB
 65 3F 0F D3 6B BE 35 BD A6 45 BE 43 A6 44 DB 28
 8D BE 54 6D 98 3E 4F 65 61 67 BA 56 31 4B F8 DB
 42 4A A4 51 61 43 42 33 69 B2 4E 99 11 A1 68 CF
 66 AC D7 95 79 52 9F 0B 86 D3 48 8B 67 7D B2 52
 94 E6 D1 55 14 2A F6 D6 92 F3 78 AE 51 44 AB D0
 88 2C 10 68 10 0E FA 16 B3 93 2B E7 28 3A B0 58
 D5 97 44 B3 FA CB 05 84 C7 5C C9 76 EF 0E E8 12
 5A D5 72 C7 C0 D0 E0 55 81 58 98 9F A1 CC F6 51
 01 78 65 64 5C A8 76 E9 73 72 7D 09 AA EE 5C F3
 DF 69 29 3E 58 7F 0D 83 F8 36 E0 1D 73 7E BB 46
 6F 55 5F 78 12 F0 8E B3 23 6F 47 88 5F 2B DA F0
 22 F6 45 9F A0 B1 4D A6 02 56 AF CF 73 9A B0 8B
 D3 7F B4 56 31 EC 8A C9 00 47 54 8E E4 77 B5 CA
 DC F2 6E BE 83 57 9D EF C0 3E C7 03 47 84 02 44
 81 10 D1 A9 57 E3 6F 4A 35 08 3F E1 CA 6E 7C 42
 7D C2 19 31 EA 6C D8 8B 8C 40 6A C7 FE A1 B0 30
 27 69 9A 75 17 58 BF 3F 7D 7D C1 18 29 54 19 BE
 46 61 9D 95 DD 79 B1 DE 4F B7 60 72 FD 90 7F F9
 60 BC 59 3A 29 DA A1 D9 E2 E9 F6 FB 4D A5 C0 BB
 C3 BF EB 2D E1 21 56 F8 00 C5 0A 97 95 E7 F7 2F
 3B D7 11 9A C7 26 95 EA 05 3D F3 9A 6B DE AC 44
 52 D9 AF 81 7C 05 8E 10 13 DD 54 37 95 D2 8C B5
 7B 59 11 E9 F2 5E F9 1E D1 85 9F 41 C8 86 D8 2D
 E1 03 F3 74 3B E9 D0 A2 DB AA C4 15 23 4F 0F 8F
 05 27 A1 0E 58 71 05 88 B7 2D 4C 4B 7A 09 C0 D0
 7D 46 3E 2C A7 0D 45 DC 76 3A F9 6D 7F 4F E6 5C
 F2 4E E0 81 01 EF 9A B1 23 8D B2 9B 78 43 BF 65
 76 EB 7D 52 2A 97 EA 5D F1 D4 D1 BC 0C C8 83 8D
 EE 17 93 68 26 45 2C 02 A6 1E 5C 2B 35 57 C1 46
 80 11 D9 0F 02 53 C7 C0 77 73 B8 F9 47 C5 46 FE
 9B D6 57 D9 EE A2 78 E4 1C 40 30 29 51 3B 4C 07
 EF A8 33 2F A8 24 B7 EB 0C F6 91 38 D6 BF C3 09
 27 7F C2 C5 5E C3 C9 A9 BF 42 90 F5 AC EC C0 44
 1D 9A 0B 3B 36 9D D4 36 AC 46 16 DB C7 03 46 60
 D7 4E 69 9D 60 91 63 D3 5B F0 10 34 B4 20 D8 95
 B2 59 C0 E4 C4 E7 A3 D9 F2 B3 B9 D9 38 85 27 3C
 7E BB 84 E5 99 DE E6 22 B0 81 D3 78 0E DB 8D 3B
 DC 4A 37 2D 54 5B 1A EF FA 1B 6A AF 9B 28 65 A2
 86 B5 F6 16 08 CC 13 4D B5 1C 34 93 30 67 D0 0D
 87 A5 0E 60 AC EE 3D F6 83 48 57 F9 B2 29 27 64
 24 24 4C 2C CA 7E 4D A3 ED 56 D8 85 24 CD AA 0E
 0C 7A 4A 5F 42 27 47 E4 4F 6E 89 82 82 23 B2 FF
 A8 DD EB 48 CD 3D F7 62 CB 87 27 F1 B2 35 FB D9
 56 D8 B7 C1 71 2E 0E 32 40 01 56 C6 40 E4 3A 6B
 7E 72 8E DD 37 E3 92 40 45 AA 20 5B FA 63 75 BB
 AC 30 27 F1 A4 2E 45 66 B9 93 4D 89 B2 0B AB 17
 69 B1 21 7E 4A F8 60 E1 AE A1 FF F0 79 74 CF C3
 82 BF D7 9A A8 EB 6D 4E 46 06 58 BD 5E A3 E8 BE
 7C CE E3 A3 EB 0E 4D 06 17 D3 AA 87 42 10 44 5F
 B7 EB 88 06 41 F7 06 00 42 F4 60 7E B4 C3 4B 05
 06 E7 73 9C C5 49 4F 1B 14 C1 30 B2 32 EA A9 B1
 A7 95 57 97 83 3F A3 40 63 D7 6E E6 EE 3D BA 79
 EE C5 67 D2 42 EC 79 41 52 8C 8A EF 91 E2 68 54
 A5 6F F1 95 EA CF DB 91 FE 75 FA 03 D4 C5 AC E0
 79 04 B6 D8 D0 CF 8D C1 DB B0 32 B1 9C 83 7B 1C
 18 1F 6B 86 7D F4 40 BC 26 8E 01 DE 2E 35 1B 1C
 16 21 3F CD 3B C2 25 E3 8A 21 64 17 B5 0A E1 E9
 A5 19 BB A3 A8 B4 47 B8 27 65 80 2A 2C 20 72 9C
 70 73 B4 84 B2 9B C6 41 2A FF 5B 6A 8C 59 74 80
 67 8B A2 5B 97 AE 59 E8 8A B7 46 91 99 3A 1D 99
 F1 2D 0A A9 A5 A5 33 76 67 AE C9 05 AD D2 D6 BF
 E6 31 C3 7E AB BC 24 10 E8 4D 5B 3A F7 A7 0A 96
 EE 99 74 78 47 5B 88 52 8A 8B 7D 50 06 4D 4D 89
 98 B6 52 BD F2 D3 F7 97 16 4A AB C6 BF 1E B5 34
 4A B5 01 B5 2B E0 96 61 71 74 12 3D 3B 9A 5A 21
 07 FE 68 67 FA 95 B7 E3 62 F7 E0 A5 36 C2 27 CF
 E1 E7 32 A1 3F B5 0A 3E 2F C4 5F 82 43 EF F7 D0
 72 58 7E 1D 18 80 DC C8 48 1D C7 DD FE A8 F4 9C
 17 5F C0 ED 25 00 65 21 AA EE 36 A0 5F 51 BA CA
 CE B1 78 89 D8 15 5E 77 B1 3F 71 AF 29 A6 68 BD
 6A 4A BD 62 A6 B7 6D 47 F1 4A 3C DD BB C5 9F 2C
 6A FD 1D 99 68 D5 CC 67 C3 DF 9C 1B 7D 03 08 2A
 CC 00 36 7B 62 F3 BB C5 0A B8 73 83 E7 0B 8E C1
 0B 49 B3 4E B0 DF 2F E4 51 FD 75 5F F0 C4 F1 32
 86 F6 B8 E9 65 B7 A7 8E F3 70 7E DA 5E 3F FF 37
 A5 D0 FA F2 D6 00 71 40 BB 22 1C 85 35 91 CB CF
 DA 8C 69 F6 C8 85 FC A6 3B D5 08 5E 8E D4 D0 7F
 1E BA 17 FC 19 56 0D 66 30 3E 18 7D A3 02 B6 B7
 A3 1C 79 1E EE 63 CA FD F1 E9 7F 8D 63 10 D3 01
 BD 67 E0 3B 11 9B 3D 29 57 C0 61 0D 43 66 BD 72
 64 C7 EE 7C 92 03 D1 89 96 88 7B 2D 31 C9 E9 7B
 B3 C1 29 5D 6F 35 A9 FE 9F 98 5A 65 F4 BD EC 1A
 0C 27 2F D6 46 F1 C6 CE 93 61 56 9B EA D5 FB 63
 77 5C 3C B6 D9 BB 42 C9 FC 13 24 60 D6 8D 73 54
 22 8D CC 3B 36 1B 4C 45 BB F4 AC 01 84 5D E1 27
 05 62 45 EB 9D A1 B0 E0 15 79 13 12 45 66 C4 90
 F0 3C 39 8A 7F CF C0 5B 48 D9 18 CD 48 62 BD 6F
 BF F5 FB 39 25 57 00 B4 14 20 E3 EB 83 E6 9B BE
 BC 5A 15 3C E4 00 FC EB 28 C4 CC A7 6E E6 E9 B6
 6E 85 2F B1 DD 39 A4 0D 16 1E EF 5E D2 AD 1C 6D
 0A B7 24 60 60 9D 99 21 D3 CA 67 C6 48 B5 E2 94
 EC B4 35 FB 28 D6 AC BD FB 76 F2 BC 4A 61 61 17
 E9 69 E0 19 5B 03 44 21 0E BB F1 42 1D 5A BF 3E
 4C 25 6E 48 91 F5 BF E8 09 FB B2 29 C4 6D D3 4E
 F9 C1 34 E3 A4 60 60 15 9B A4 72 45 87 76 9E C6
 77 EA 75 E3 18 A6 0F 0C 43 DB C9 EE ED CA 78 D9
 71 43 1A BE 7F 2E CE BF 2F 37 C9 91 DE B4 64 D8
 6D D0 EC CB E4 F8 20 C0 C7 F4 77 1B 9C 67 20 AE
 12 BC AC B1 A5 B1 DD 65 C5 8E BC 23 B4 0A 57 A1
 7F 0D 65 C2 15 F9 67 4F 92 D5 A3 03 3F 3A 9A F5
 90 5E C4 3A 94 53 C2 71 01 5C 5B C9 F5 7F 43 30
 B0 39 8A 9F A0 C0 0E F8 96 BD 65 ED 53 CD 38 7B
 85 64 83 05 4D 11 12 4B FF FF 40 BE 23 4B 87 86
 79 A0 7D 14 D4 A0 7E FB 53 42 B3 02 25 82 53 1F
 A7 87 48 BD 10 FF 1A 7B 3A 90 B1 2F E7 36 CC 8F
 97 37 B0 8C 07 9A ED E9 D7 00 C9 47 A5 7F 42 0A
 87 EE 15 04 30 BE 8D 07 82 8B E2 E9 CC CC FC 0E
 81 B7 F3 C2 7B A1 74 B3 42 2D AD 2E 83 66 0B 08
 A3 8C F4 32 8B F5 9F E7 7F 89 82 C8 E5 DE 35 B9
 C3 70 A7 9D 22 12 42 00 7B 14 85 A0 F9 15 7D 29
 CE 68 04 F9 3D 76 36 44 1F E6 FE 30 E0 D9 14 1F
 27 7E DC C2 9D 5B E5 47 9C 36 9B 8C 5A E8 EC C3
 9D 3A A0 5E 8B DC B9 AF 85 2B E8 89 6F 2E 13 87
 6B AE 57 47 27 7F 2D 7F 08 53 05 0E A1 FC 6A BF
 AF DB 5B 3B 84 4F B1 03 D4 4B A8 4F CD 0B CF BB
 3F 9D 0B F1 C5 08 CA 57 9C B6 26 BA CA FC 47 B2
 C1 ED FE D8 AB A2 05 03 7C E3 84 0C B6 B4 34 F9
 11 6C 42 EA A8 4D 33 C4 FD 12 A9 DA D6 27 F4 41
 30 2C 14 1B FF 79 02 8E E9 40 F0 D4 C6 5B ED AA
 2A CF 0A 86 D3 63 E6 7C FB 6F 98 13 72 02 8F 3C
 82 9C 8F 9C C0 D9 60 8B 79 49 3D 5A DD 50 E5 E3
 C8 33 A3 D5 20 B4 58 31 81 40 E0 A3 71 6F 96 7E
 54 17 9C 65 C5 2E C4 AB FA C2 DE AA DF 1B 9A CE
 4A C6 02 4F 4A 32 29 39 D9 B9 E6 1C 70 13 0E 84
 0E E2 9B 9F D6 24 EB EF 2A 98 2F E9 AC 90 C5 F6
 FE E5 18 EA 1E 8E CB 3A EF 11 3B 1A CA 12 E9 86
 76 40 96 0D D1 2B D7 CF 87 36 71 C1 13 79 65 86
 AD C3 69 39 DA 63 9E 0B EA F2 54 85 71 9C CA B2
 88 5D C1 71 B6 ED 0E 6B 8A ED 95 17 A3 D7 D9 02
 E0 FC 25 2B E8 71 D8 0F C3 F1 6F 2E CF 18 8D A8
 6A F2 C9 FC 17 23 33 BD 44 52 4E 30 37 EF F4 B3
 17 D7 CE E3 EE FA 3D A3 E3 F6 3E 25 1C F0 40 33
 A0 84 CB 00 DC B0 39 71 AC 3E 60 29 CC 1A 7C 59
 94 A6 96 86 5C 3F 4E 2D 8E CE 30 CF F1 EE FE A4
 6C 5E 9F A9 C8 5A 68 DE 32 BF 25 60 19 89 3C 67
 2D 69 07 F6 C1 44 58 84 ED 0A C6 DC E6 F0 C9 88
 57 85 3F B2 A7 C0 68 F8 F5 DD 22 6E 0F EE 58 09
 AD FC F8 33 B7 3A AE 0F 96 A7 E7 70 D9 85 1C 51
 6C 62 D5 8E 27 EC 4F 40 92 41 A4 EE 6F F2 B1 D8
 00 CE CC 20 ED 5B D8 20 14 6C 8C BC AD 31 A9 57
 6B F3 E3 D2 69 1E 09 A6 54 36 55 A7 A9 75 9D 2C
 25 25 DC 5C BE A8 39 5D 5D 6E 05 D5 91 D3 58 32
 6E 70 D5 D0 F3 70 29 2C 4C F8 47 67 7A 79 61 28
 DE AE ED E9 EB D5 D4 50 AB CA FA A7 06 42 F7 CB
 0B A2 B6 2C 31 BD 0C D8 04 C7 AB 6B 6A 67 74 6A
 A4 48 55 79 45 F1 D7 C0 FC A2 13 D2 8D D4 4C 43
 76 E8 B5 78 52 F6 51 44 98 BD 10 73 2F 72 88 DD
 EA 35 E0 49 37 29 0D 75 7A 26 8B 7C F3 7C 4C AF
 8D 51 67 92 2A 10 6E 9B 2E 2F 59 0F 8B AF 40 E7
 BE 8E 71 E9 15 E7 F6 06 67 98 CE 4B A8 C4 41 65
 2B 56 8C 16 43 C4 0A B9 B7 56 88 63 65 68 2E 71
 4D A5 B9 84 F1 B6 0D 67 CA 3E 04 87 03 18 51 DA
 D0 12 B9 05 FF 3C 7F 09 46 54 E7 6D 96 7F D4 FF
 16 DD 36 7E 60 44 7A 9B D9 C0 DE 78 7C 81 4F 4A
 62 3F 78 58 70 82 A6 22 90 1F 45 44 33 15 21 76
 60 8B 1F 8A 25 B7 4E 43 0E C8 AB 30 C2 D5 D4 96
 81 61 9B 4D 5C 49 E6 D8 6D 9E 35 9B C5 6B 74 09
 32 B0 82 19 D8 DE F0 29
* End 491657932 1158533435