* LTspice Encrypted File
* 
* This encrypted file has been supplied by a 3rd
* party vendor that does not wish to publicize
* the technology used to implement this library.
* 
* Permission is granted to use this file for
* simulations but not to reverse engineer its
* contents.
* 
* Begin:
 FF EB 42 FE A0 E6 B0 EB 92 B5 09 B3 2E 50 B4 A6
 49 40 B1 B9 CE 95 B5 4F F4 EA CE 69 81 8B 9F 03
 73 28 7D D8 7C 36 69 37 91 5C 55 FE 2D 6B 16 67
 AD E2 A8 F5 68 FC 6D 04 65 6A 86 12 9D A7 09 7B
 02 6E 3A 62 99 98 EF DF AC 60 AB 23 6C 84 52 9E
 08 4B D4 BD C0 7A 5B D4 1D 9F 87 A7 B2 D7 4A 8F
 42 02 91 70 BC 8D 6B BD 32 2B 00 D8 B1 3A 19 72
 85 C1 C1 EB 09 9B 5F 32 06 F4 3A 56 EA 00 48 82
 1C BA A2 69 29 AA F9 A7 49 7F 16 5B 4A 4C 94 78
 33 34 48 C5 04 8F 07 B9 BE 89 5C B0 C1 47 06 11
 9F 01 44 C5 95 E7 E5 87 7E 0F D8 AF 23 3E 3A C9
 41 95 EA 5D 74 7E E5 39 49 F4 2C 3F B0 7B B2 50
 DF 5B C8 AC DE 15 1C 6E 4F 64 1F 0F 29 8F CE A4
 89 F3 9E FC AF BC 83 C8 98 31 1A E2 85 BC A1 31
 66 0C D7 12 94 B3 1A 2C 35 31 D1 07 83 DA 04 6E
 86 81 6B 25 62 E6 D4 B4 98 FE 0E 9E 65 70 88 B6
 FF 41 35 D6 3E 16 8C E4 BF A4 D6 AF 3E 84 0B B3
 84 70 86 A1 FD D8 A4 68 2F 09 A1 5B 0F 76 E0 E3
 37 DB 10 30 32 E4 FF C7 D1 0E 1D D2 07 B9 95 F7
 1E 93 9A 7B 8E 2D 40 C3 62 39 49 70 52 98 F6 2A
 0B 01 6F 1E CD BF 7A 95 C4 68 70 93 F7 CC 9C 6A
 08 CB E4 0E EB 52 E3 F6 A9 42 0F 90 3E 1E 1D A4
 E1 B2 29 06 BB A9 F0 C7 F4 D2 E1 DE A4 1E 20 29
 DE 2E 1E 07 BE 3C 4A EC 9C A3 4F C1 73 50 15 CA
 7A 0D 4A D7 35 D3 15 42 60 50 A0 95 3A 02 4E 29
 39 34 00 3C D0 1F D3 3B 13 9C 1E DD 80 A2 82 6A
 AE ED 76 7F 5E 15 88 7C 11 29 8C 2A A6 CC 52 C2
 7B 41 FB DD AB 0D 47 F5 66 BF 4B 0C 4A 51 67 C5
 88 E8 B4 78 87 60 8D C3 45 EF 2E 7A FE 25 64 87
 2E 16 2E 8F A3 B8 EC 4E 0D CC D8 86 3D 21 AE 00
 EA EC 88 49 61 F8 0D 24 7A 36 6F D2 D6 6C 85 F4
 9C 0A CD 32 FA FA D1 50 93 80 CA D1 9B 60 01 6D
 42 E9 1C F7 BD F7 A7 19 CA D7 C1 68 95 39 EE C7
 9C 09 B6 EA E4 1C 51 20 B9 BB FB 8B D2 C5 35 85
 9D E3 33 40 FE DC 4D 17 54 9E 80 8C A5 E5 45 E7
 3E 01 79 E1 B9 9C 66 E9 81 D4 00 D5 47 C0 F9 A6
 52 DF 26 87 D1 A9 55 75 24 5A 41 3F 23 82 81 A1
 E9 6B 94 4A 75 FA AB 25 1A 3D 70 7E F3 72 C3 60
 C6 7E 22 69 EB 5F 06 9B 1D 3F A5 E2 A5 19 8D E1
 18 8F 03 8A 7E 0C ED D0 7C D6 DF 2A FF 06 66 B9
 81 BB EF D9 19 75 5A AF EC 06 F3 9A 47 1A 1C CF
 A0 18 AF 44 89 CB 1D 5D DE E0 83 29 AD 10 5F B1
 36 34 16 50 9F 06 D2 54 4A 7D C6 09 CE 40 E2 F6
 99 77 A4 9B 21 8E 21 34 85 88 62 36 0F 01 4D BF
 D2 91 F8 0A 4F 5C 4C B8 ED CA 51 49 FF 77 FC CA
 D9 71 F6 C6 9C 97 A6 A2 F8 F8 55 1B 07 C9 4E AF
 75 55 1A 90 5E 5E FC A3 47 B0 34 17 74 07 A7 5D
 E8 C2 4A 96 C8 96 03 84 4B 5C 2A 19 65 EA 42 7C
 80 19 5C 91 EF DC 1D 93 D7 10 42 14 CA 78 E5 E0
 D4 95 CA 5D B7 CB F1 F4 CD D6 16 34 58 76 3A BD
 52 67 65 42 F9 B8 F3 E3 E0 E5 AF AD B9 42 08 91
 3B 18 F8 00 E7 08 36 8B 86 D3 49 B6 AF 43 DB 28
 33 B1 07 E3 A7 25 48 8A 8A A5 5A 19 22 26 93 2F
 75 A9 EE 1E 5E 32 C8 2C BA AD E3 B4 DB 51 8B 90
 E5 52 A9 BC 79 C3 5D 1C 89 5A 87 15 C9 2D 91 3C
 B6 56 EB 8A 2F 0F BF CC D5 02 A7 9D 15 F8 64 CC
 43 9C CA 2F C9 A5 BF 86 58 52 3B 16 61 E9 0D 11
 05 19 1F A8 0A BF A2 3D 1E 58 AB 4C 14 96 F6 D1
 27 54 B2 EE D9 24 BD A0 7C A4 9E 82 DC C6 81 1C
 7D 09 F4 14 B1 8B D0 9F 1F 5E 98 F6 A8 C1 AB 16
 F8 A2 8A BD 48 37 66 0C 35 52 6D 23 A8 5C 99 DA
 1B 08 3C D2 64 3D E1 48 A4 68 FE BC D1 4A 08 9A
 A8 14 15 CF 5F A9 11 B8 D7 A0 16 31 5B 9E C2 14
 16 9C 69 85 4C C3 52 5D 9C 22 EB 4E 5D B4 4C B1
 83 95 62 42 DB 11 E5 5D EF 0E 70 01 E1 55 56 E1
 81 1A F3 1D 2F 57 7C 72 88 80 FF 74 6B 9C 5C D1
 83 64 81 87 B2 AD 46 A4 78 EB 9B 72 0D A6 E4 99
 60 62 5A D5 D5 14 C0 63 0D 64 C3 F5 4A DF FD 96
 E7 84 E5 D5 B1 FA F2 90 12 C3 E8 97 B0 F0 F5 17
 4A 53 96 B0 9C 2E 02 F9 BC 70 DF 74 D9 43 E3 A9
 68 67 58 13 B3 3B 39 D7 76 5A 9E E3 53 36 FB A2
 14 FA FB 32 8C CF 7E 07 40 0C B7 4D 20 5E 6D 70
 8B 04 89 66 19 87 B9 2C 5A C6 A5 8B A2 B7 95 BA
 6C F9 B3 DA CE 32 2E 1F 12 90 B3 0F 2D 06 2F 86
 31 AE 4B 3B 32 5F 19 16 C6 FB 93 D3 1B 0C 2D 39
 0B 73 17 16 71 B4 D8 13 69 B0 02 EB DA DE E9 C4
 65 21 9E 4D BD D5 C5 CB 2C 0D 4D 9E 5F 4D 2E 0E
 1E 66 AA C7 31 6E 1B 9C D5 70 28 B6 75 BD F8 C3
 01 F8 79 86 F1 B1 56 0F 60 95 A6 5E 20 FD 78 D5
 02 3C E5 60 22 7A 3B E8 4E 75 9E 45 D1 64 39 10
 4A 25 9C 93 28 D2 92 6D E4 A1 35 EF 90 42 BA 45
 DB 97 00 AC 74 21 FD 87 5E DE 58 F0 F1 73 C3 CA
 30 E3 60 0B FF 7D 42 61 92 80 FA 76 32 EB 62 FC
 E8 FC 1E C8 27 13 79 59 C7 E1 81 77 B6 7C 7D 3F
 1C 5C A1 A1 07 7B DC C6 E0 C3 5A 26 B8 F6 11 F8
 EF CB F0 B7 23 EE E3 01 9E D9 F0 02 B6 1B 03 DC
 64 73 1D 71 BE 02 CD 51 02 E6 71 43 83 DB 73 64
 4B E4 5F 8A 2D F8 60 CA D5 CE 84 06 72 2C ED D4
 89 E5 C7 34 92 74 D5 AD 5F FF 96 00 A8 07 D3 42
 B7 88 5E 4B F5 3C 53 E8 85 4D BE 28 11 D9 B0 1D
 FE 1F 20 3D 96 AC F9 59 31 04 6D A2 46 E4 6C 62
 EC 4F B3 2C 9D 58 DF 26 B1 43 95 99 33 5E 8D E3
 8F 3D E1 8D 15 4A F2 B4 8D FA 92 79 02 52 A9 C1
 86 05 8D 54 D9 4F 88 24 1A 41 D2 E3 72 FA 71 06
 BA E2 A9 A3 0E C7 59 F0 04 64 8C 97 42 3B 9A 72
 24 17 01 40 6B 5A FC 34 E5 9F 6A C6 98 11 E9 0D
 27 AC 7A 5E 36 C9 6C A7 C9 89 C2 AF 07 98 A9 5E
 95 B6 83 6C 7E B7 32 17 B6 F8 CC B9 3C 6A 25 4C
 B0 50 0F 38 ED 02 8F D7 77 CF A3 18 79 B8 F1 9B
 D3 0D 0E 4D FE D3 8E 00 99 65 59 C8 36 3C 20 F2
 9E CC B9 95 B3 12 47 3D 00 3B 90 65 AA A8 83 05
 ED AB 45 1E AA 42 54 2E 02 D8 C4 01 33 BB 5C 9B
 95 B6 55 14 BD 45 04 13 B3 58 50 2C FE FA 0E 03
 B4 82 07 02 11 D9 8B 92 52 DA A9 36 49 C9 E6 E8
 D0 31 43 64 49 D5 27 91 AC EB 58 4D 61 35 9E 0D
 54 A0 39 99 74 1F E0 14 1D C8 10 B5 AF DD 98 66
 3F E7 EA E4 F9 74 4F 6D 4B 1E 0F 9B C4 D4 2D 04
 16 F5 C8 23 61 CD 40 44 4A 10 B1 53 70 45 25 FC
 68 A2 B9 7A D5 10 AA 49 2E 17 28 6A 2B 54 BB 82
 F5 EF CE EA 09 46 FE 49 02 08 EB F4 BC B5 DB 02
 44 9E 3E FE 2F C4 7E 78 46 5B 52 D8 6B 80 EC 07
 01 B8 F7 5C 55 D1 3F 3D 9D 2A 7E 4E EF 35 6E B5
 29 A0 F5 88 C3 EE A5 98 0E 8C 1F AE 39 B8 59 7F
 B2 69 DB 27 24 34 E2 EF E4 2F 1A 78 E5 DF 2A 68
 C4 98 77 04 69 FA 32 A1 16 77 66 B5 16 48 7C 8B
 37 A7 05 91 18 A9 5A 33 18 5C B8 C2 32 43 45 7B
 F5 96 30 F6 F6 F8 5B C1 BE C8 4F 42 C4 09 AB 60
 64 8A 48 BA 79 F0 EA 72 AC B2 2A 49 CD B6 97 75
 85 9C 4C 2C A4 42 DC 3B 86 09 80 AA 07 2E BD A6
 B4 5E 49 BB 2A D7 FC 6C CF 47 34 F4 5B A0 A5 30
 ED 25 30 A9 82 C4 35 25 79 21 62 0D 0D 11 5E F0
 6B BE 90 AC 19 D8 A9 CC E2 E8 34 B9 18 B1 E8 27
 16 34 AC 57 6E BF 10 09 EE 77 07 11 6D 55 B4 9D
 C6 24 D2 71 6A 25 4E 4C 96 83 BB 2B 14 19 DB EA
 7A 2B 7B B6 7F F5 B2 76 34 64 9B 65 3A 07 CC AE
 E8 7F 9F C7 FF 95 B9 07 98 B0 85 6E 11 11 A2 BF
 80 CE F1 7B 80 50 50 EE 33 C0 58 CC 90 3B 71 05
 F9 C0 B8 ED E7 0C 6B 1D C5 E9 30 1F FE 86 9A F2
 D4 82 94 64 DE 28 14 A4 48 35 58 C2 DC F8 7D ED
 1A 7A DC 39 87 7D 6C 35 82 06 E0 99 FA 27 74 84
 C4 E1 67 6B 99 DD 8F 0E CE BE F6 D5 A2 8D AA 65
 DB FC 5E 39 A6 A6 87 2A 97 A8 DE 21 9F 84 21 DD
 5D 27 7D 0D 72 92 AB 57 E9 19 6D 18 7F 4B B0 EE
 1A CC 89 FB B6 68 E4 CE 2D B1 92 E4 0C D1 F6 83
 16 2D A2 3A A5 CE 4E 28 2A 05 9D EC 3A 41 A2 A9
 38 69 D3 4F 9C 75 58 5B B7 16 1C AA 59 AD B7 19
 0F 07 52 94 FD 4A 57 81 A4 5B 17 B0 CC E7 C4 5C
 50 2D 16 20 84 FA C2 C0 3B 14 13 48 3E FA 39 A4
 2D 7A BE 9E 05 0D B6 4A 36 02 95 B7 DF 46 96 F6
 DA 54 28 28 1B A3 64 63 71 11 E0 5F 00 AB 13 A4
 58 7F D0 9D B5 61 14 11 6D 84 96 5A 40 17 B8 DA
 DD 3E 0A A9 2F D1 1C 0D F5 F7 C1 F6 A4 AC BC 5D
 89 91 03 1B C1 81 85 42 DB E7 4C D8 D0 4E AA BF
 9B D4 F0 6B E8 2F CD 29 5A 83 EF D0 A1 A3 78 29
 E2 E5 02 E6 E0 15 F7 C7 88 C9 EB B6 01 FB 2B D0
 5A 2E D1 32 52 E4 3F 3A 5D 00 6C 74 60 56 07 F9
 8F 32 CF F0 65 45 31 FB DA A7 A1 82 F8 63 34 C5
 34 03 BB 1B 20 61 1F 6E 07 C2 87 DA E7 8B C2 19
 A7 A6 F3 E9 3A 7A 17 CB 31 60 20 7F 12 9B 30 33
 AA EB 3B 30 C3 E5 92 29 5E 6C 25 AA 6B 30 E1 7C
 13 9B 69 D4 5D 9A DC AD F6 85 07 DC 86 E2 9B AC
 17 68 8D BE 60 AA EB A6 BD 11 69 A9 3B 6C 2A 71
 D2 BC 15 1C 66 63 9F 33 51 38 FD 1F 8E F7 B2 36
 5A CC 40 12 5B 1B EF 51 5E A4 86 66 89 57 A7 F9
 64 A4 2D 1C D7 1F C3 EB B1 9E F9 F0 BA C5 5F 12
 E4 1F F0 8C 62 54 69 F3 EF 60 66 0F 53 D1 DA 8E
 B9 09 DF F2 6A 9F 58 6D 44 D4 2D CC FE 8E 9E 74
 E7 72 46 12 7C 38 44 AB 4B 93 18 91 81 1B D9 F6
 F4 E5 BF E3 4A E7 56 15 0F 69 F0 90 B9 2B 3D 29
 7F 13 6E EC 01 6E 28 89 27 7C E0 ED 8E C1 09 6B
 2A B4 08 8B 24 B0 90 4B 57 E3 D7 B4 91 CE 4F 15
 0B A2 79 E4 56 B6 58 07 EE E1 70 2D 31 D1 12 13
 8A 2F C7 C8 15 8B 17 73 1D D1 E5 79 D3 57 EE 9C
 F3 50 5B EC 76 3F DB 34 8E 41 70 B7 1C 08 A2 93
 D3 0A 60 D8 41 9E BD A4 BA 26 28 F2 22 91 8F DF
 A0 47 C7 2A 75 77 8A B4 33 F7 38 E7 D7 8F 1B 41
 6A E6 21 BF 24 EB 88 0E 44 ED 0D EB AF DC A1 EC
 15 64 5D F7 4F 96 D3 02 A4 11 2F 02 C7 BA FF 4A
 32 7A FE B1 69 49 0B 60 55 0B 14 D4 35 21 F4 97
 DE 47 F6 08 1B C2 24 5C 60 24 30 34 BB 3D D3 57
 E4 B1 0F BD 24 80 04 4A E0 58 B5 25 47 13 8E 2E
 67 4B 31 FA C7 1D DA 02 97 E8 27 B2 B3 D5 2E 82
 71 19 80 1E C8 10 37 4E 23 8F 95 1F 32 D8 FD 24
 67 C1 5B 81 C2 C9 0E FE EA 3E A7 A5 FF 57 59 13
 E8 DE 9B 91 6D 75 94 20 E4 70 3D 16 6C 25 DD 3C
 C0 8E 1A 89 1C 40 05 3F B9 DA 89 6D D1 3E 2F D0
 99 D6 23 9E 69 EF BB DB 60 3B 23 26 36 83 3B 83
 CC CD F8 F9 1A 00 61 AF 62 5F C7 3C 2A 17 30 94
 8A EF 77 9E 25 C3 E7 98 0E 5D 37 7D 08 01 6E 7C
 B4 42 89 C4 51 43 11 CE 6D E7 01 1D 42 29 C6 E9
 1E F4 77 39 CA AB 62 47 D4 F3 91 79 45 E5 D9 CF
 A8 82 7C 10 3E 44 6E DC FC BA 09 45 E6 57 A4 E9
 9F 68 F7 C0 5B 38 AF A2 B9 9B 11 DF D5 E0 C8 D5
 93 CD 04 AA 2D 15 CB 8E 68 EB 7A A5 60 6A 8E FE
 86 A0 60 47 FB D7 18 12 79 0C F5 E7 9D 7E 01 A0
 C6 4A 96 8B 89 E0 CD DA 76 54 63 EA 17 D3 FA 97
 94 D5 48 1B 39 1B F2 A7 93 E6 D5 C1 A8 C7 B9 3A
 57 99 2D 33 F2 69 EC 90 90 AF 55 BE 38 F6 32 4C
 3B 57 29 48 28 E8 DB 22 F3 09 F3 72 6E 0F 29 0D
 E6 70 CA 18 6F 13 3A 5C 23 35 5A 85 3F 1F A7 F2
 6D 69 F1 3A 2E A2 05 6C 29 AC F4 2C 6B 97 45 3B
 39 20 3A 1B 37 08 A6 D2 23 A0 BB 0C EC 43 E3 11
 DB 75 AB FC E3 DF A1 0C A5 B8 0C 43 A6 B6 41 D7
 C7 03 29 E2 F6 6F D6 6C D9 63 DC 19 3C 1A 26 05
 02 83 AF 38 81 78 E0 F7 12 7E 9C A1 EC 21 81 64
 F1 04 2C B8 C0 F1 AA 31 E7 B9 F4 14 FD AD 5A 86
 0C 3C 15 0B 97 0D 3C 3E 1A 87 9B 9C 43 3B 04 28
 7E A6 38 97 F4 A3 B0 97 86 8B 8C 4A E2 74 14 CF
 B4 24 E7 07 82 00 E6 A1 AC 13 3B 3C 11 0B 06 DC
 CE 4D F2 19 28 23 27 BA 6F 4C 98 DE E5 74 13 D6
 68 82 D6 E3 6E 2B 55 CB F0 66 A2 6A FB AC 5C E9
 22 5C CA 81 E3 DE 28 E7 98 E9 EE BD 30 87 DD 8C
 B1 D3 90 8D AB 81 13 2C 6C DF 2D E7 AD 2D BE 32
 0F CE CB 31 99 42 32 5B 66 2F 2D 84 C8 44 11 D4
 34 3D 11 CC EF 18 9C 41 2C 16 10 9C 8C 5F 4B 76
 1D 10 73 38 53 24 23 AA AD D1 67 27 D7 55 17 9A
 FD 8F 17 17 1B 5D 63 9A 8C A6 30 54 11 CA 8E D1
 5A 65 28 CB 68 62 3A EF AE 78 FD 8E C7 82 D1 B2
 3A D4 CB 5F 75 9E B5 AA 3D 03 F3 8F B1 7E 17 4A
 61 B7 69 E7 CC 6D 74 76 53 08 92 AA 03 DC C7 2C
 DF 60 42 D7 38 1C D8 58 A2 ED EF 29 03 70 72 42
 1A 09 2E 24 E4 B3 51 30 03 22 BB E7 82 D4 20 54
 C7 5F 16 E0 95 A7 D4 F9 66 E8 FD 55 41 2B 9D 95
 D8 24 72 86 7C 1D D9 43 8B 95 96 D0 62 6C DA 86
 DA 4E 09 B2 5F EE 9D E1 1E 40 65 59 2A 26 10 D0
 0B F4 E3 3B E8 A7 BB FA E4 01 F7 F8 B2 B6 5C 6E
 73 D7 F5 D5 D3 B3 4C 8A 02 C8 D2 30 63 7C 39 BA
 92 16 3A 4E A2 73 B2 D0 72 F5 B7 FE 2A 86 F4 B3
 B4 9F E1 26 21 29 55 6A C9 B1 16 58 DA C6 4E 93
 7C FA AE EC 73 56 7D CB 56 22 B2 27 15 09 88 E1
 10 77 D6 A3 43 CA D3 DA E7 62 59 06 60 EB AD 00
 D1 00 33 41 F0 87 5F C4 12 BB 22 4E A6 64 A3 13
 2C 5D A1 12 E4 A7 63 62 E5 0B A3 D2 8D CA D2 DB
 3D FF 1C 96 0A 82 72 A5 4B 5D 60 FB A3 E5 6D CD
 4F 43 1C 06 29 3D 00 7B 22 D5 07 62 65 47 11 ED
 2E A4 04 58 EC C4 82 C1 E5 E6 28 C6 5D EE 69 D7
 7B 1C 8E A5 69 01 7E C2 A6 1A 78 62 98 51 B0 33
 96 09 73 DE 7C 7D 2A 67 23 95 12 6C 14 55 98 9A
 A4 8B 71 8B 04 F1 49 D0 9A B4 58 AD 0E 0C E0 21
 2E 95 2A F0 FF 1F CB 8C D4 30 A9 F0 28 3F 44 82
 09 1D A3 61 32 47 60 1A 00 E3 19 A9 75 B7 37 FB
 18 FD 19 06 1F 22 BE 4B 67 C2 4C DA 5E 88 49 FC
 03 5A A4 70 A5 F3 2B D2 DF 2E D0 F7 BB 5A FD 96
 40 DF 40 1E 9E 0A 7D 76 C8 3C B9 B0 EB 9A DF F2
 38 D7 C7 E8 24 86 A5 EF 82 AE 2F EE 6C 09 20 0B
 1C D5 D5 97 EE 32 64 BD 35 57 37 31 EA AE BB DF
 EB D6 92 98 11 4F 7E 0B 12 FB DD 0F 10 07 2A F8
 8B A8 A1 4D 10 7C 61 25 DE EF BD B8 EB 80 86 9E
 C9 15 43 4E 7B E6 BB 5D D3 A8 AA D8 0E 8A 0D 98
 85 BD 67 9E E4 13 B5 ED F8 E7 7D 47 95 D2 CD 9B
 77 D5 B5 43 0F 2C F1 6B B8 9D F3 74 A4 AF D9 02
 01 BC 21 D8 83 4E 92 48 92 B7 73 4C CB 8F 2A 82
 38 AC 82 5B 94 5C 38 08 73 0A 18 62 A9 8C 76 51
 33 15 21 EE F9 8F D7 1A 46 82 B4 13 DF 59 CC A3
 EC F6 BD 57 04 93 3D 33 A6 CD 37 64 FB 79 4F 74
 95 F3 79 59 0B 07 20 1F DD 3D CB 4E 6C 6B FD 2D
 43 25 5A A4 01 8B BD 76 39 EB A9 2F 27 3D 24 CF
 B0 80 7A 06 35 65 D4 45 3C 13 52 D8 80 78 19 95
 99 58 7A DB 88 E0 4D 3F BF 2E C6 E9 FD 26 EE F4
 BF AA E9 30 6D 9F 4D 35 A7 1E 86 F1 4F 02 9C 1E
 AD 7C 2F BF 1F 34 6E A3 75 7C 8A 88 ED 75 00 02
 94 CE 86 EA 56 E4 3A 35 3E 57 46 51 0E EE 4F A3
 F1 22 90 94 3D BB 53 23 08 B9 4C 8A 51 74 3D 1C
 F7 2C C8 6E 22 DE E0 81 4E 62 B1 B2 39 D2 C3 AA
 2B 32 1F 90 61 A4 F1 D1 F8 38 56 C8 44 ED 33 A1
 15 4C 21 57 BC CC 7F 16 8B 7A 73 4A 23 66 29 96
 A4 55 0C C3 91 84 BF E7 7C 52 66 CB A3 9B 7E 5A
 FD E4 C2 04 05 68 AE AF 71 57 EF 78 47 29 FB 82
 81 4B 2F 31 64 4E F7 B5 9D B3 79 26 67 EF 39 F2
 5D C6 29 C1 98 11 3E EB A8 CA E0 CA FE 85 FE 66
 EB 86 FB 25 61 26 22 99 D9 70 52 42 2F 67 8D 0D
 06 C3 F0 AE 2D 62 6A 60 BE 93 BB 0B 29 0B 5D D3
 B1 51 CB 22 3E EE 11 CF EE 80 C4 3D 4B 7F 45 81
 EC 5E 58 30 A5 E0 ED D0 7A 78 54 04 26 1B 16 53
 91 31 89 0D 96 00 A9 98 BA 6B C9 A3 72 6D 55 DC
 31 09 20 52 E0 C6 89 C3 7C 74 1F B7 6D 33 52 41
 81 4F 33 DF B2 C6 C9 A8 E6 E6 E4 DA 02 C1 33 F3
 9A E8 27 95 9B DF D0 33 5B 17 55 16 89 55 C0 F2
 7F A5 0B A4 64 DE CF 15 D8 77 DF 95 CB B3 1D 2A
 8A FD 7B 83 32 8E C1 6A FD 24 86 0B 18 E3 8E 95
 BA F7 83 64 0D 34 FC 25 34 E6 51 EB 44 E9 42 34
 86 3A 8E CB 1C 2B 6F 1F 00 B8 43 F6 35 F4 34 E0
 A3 D4 A0 78 A8 00 75 AC 41 03 52 12 55 C9 DC 10
 30 D4 2E 54 47 F8 5D 76 EE 18 2F 42 15 08 5D 3F
 D5 0E 98 50 45 84 BF F6 5B 11 7F 90 28 30 CC A7
 69 2C 57 72 D6 09 D4 AA E5 57 0F 99 4F E3 A0 B7
 26 CC CC FC 54 62 A5 38 DF 58 99 04 42 0A C5 67
 B5 19 A5 01 51 B0 D3 74 6C 50 CB 7D F1 51 9D 9B
 4F 30 05 15 16 4A 9E EB 9B D7 49 7C FD 15 20 1D
 A2 D9 4C 7B EA 1B 65 27 5F AE 8C 4D 31 3C 38 E2
 83 8C 7B 3F 26 A9 49 F0 5D 7B 75 85 2A 1A 36 70
 12 F3 09 FC B9 D8 09 CA 01 60 C7 32 CA 54 24 EE
 00 E9 BE A2 AA BC B0 9E C6 1A 43 4F 5F 6C B0 19
 D9 3D C3 AA 76 90 6F 5C 2D 25 15 40 D5 97 C8 A5
 23 BF 76 AB E5 AF 0B 70 61 09 6B B3 5D 73 F4 C2
 39 F6 36 FE 79 5B 53 F4 47 93 67 EC 32 89 01 71
 7D 02 70 BC F2 FD 1B 7A E3 51 F0 3D FE E5 F5 D1
 33 64 FC E5 55 CE 78 D1 E0 2D 64 F3 3A 15 78 50
 73 DC F5 B4 CD BE 44 4B 94 A7 1A E3 ED 5B 47 26
 1E 3C 3F 1F 74 FD EC 8E AD FE C0 C9 63 99 EF EC
 FB F5 0E AA 1C 5E 32 DE AC 74 66 79 50 DD BC 51
 F5 35 05 50 CB 0C E8 28 9E 89 8D 41 93 8F F9 3F
 00 E1 4B 1D 99 71 7D BF FD 4B 7A C2 70 71 DD A2
 EE 90 AD CF 30 15 B1 2C CE 3D 56 19 B7 BB 1E E9
 FD A5 14 7B BC 2C 7F C9 32 E9 05 A9 84 F2 05 B1
 2B 2D 56 3D 95 D0 3A F2 49 39 3B 27 65 7F C7 FB
 0C 5B 98 26 59 FD 23 E2 4E 34 05 3B 9D 74 D6 6B
 9C 86 84 F0 BE EC 88 AD 36 92 3C 01 A2 1F C6 B1
 97 6C CC 3A C2 78 70 92 8D 29 B4 05 AD 64 99 F7
 3E 54 37 73 7F 85 D6 1F 74 A0 50 8C 4E 2F 27 E2
 66 32 80 52 9C FE C4 4D 61 FF 27 61 2B AC 76 00
 B5 C3 9D BC 99 DD 29 25 E4 39 1F 9E D7 E7 27 25
 70 0F 02 B6 5C 5A 9C 8D F9 C8 7A B4 DF AA 1C D6
 C6 16 09 6F 61 1D 30 55 85 41 39 5C 2E EC 5F 91
 99 0C B7 56 C2 85 DF B6 45 B5 04 11 39 03 B7 29
 39 13 81 98 57 99 9A 04 ED 43 4E D1 F9 0B 97 74
 63 52 61 BD E6 7E 01 BA 4E A7 3E BE A4 64 9C BD
 CE 13 24 74 4D D8 38 9C 74 28 FB 8A 0F 90 47 E2
 2D 9C B8 22 78 08 90 09 CE 54 74 4A 46 49 57 A8
 03 22 38 AB 1C EB 01 84 EB 6F 54 B1 81 E3 46 81
 2B E8 AE DC 50 39 FE 9A 35 68 D6 92 A2 86 A3 4D
 E3 FD 76 35 ED 4E 31 2A 90 51 48 6C 76 E4 67 F6
 F3 75 C2 3E 89 02 E9 18 9E 59 72 F8 77 9C 6D 9F
 CC B3 D1 F2 F9 B6 30 12 42 4F 10 9F 48 4D 99 04
 1F AA 09 92 42 EA 7A BB C0 AA 2B 72 57 E8 FB 0C
 F4 F2 AE 82 EA D8 1D 0D 17 A4 55 9F 52 D9 7D 6D
 2D C0 98 E2 37 8C AA 84 D2 F8 6A 78 8A E0 D1 4D
 24 A1 C5 73 DD 02 0C 79 80 BC D3 C4 D0 A3 60 73
 6E E0 75 C0 9C FF 5A 8F 6A 52 5A 92 6C 7B B4 AB
 13 8F 88 CE 7F DE E7 24 B9 BE D8 D6 BA 06 73 81
 34 DA D4 56 3D D9 11 D4 6A DA 1D E7 A8 14 25 B1
 1D 1C 4B 92 4B D7 C4 4A 33 75 43 87 DE 8B 2E 20
 CE AE A5 DE 75 9F C1 B9 9E 25 0D F8 92 32 D8 A6
 59 CA 50 75 F0 66 CB 5E 28 F9 25 4C 55 7F 0C 8F
 27 A5 94 AB 3C 24 08 01 16 E3 02 DD B0 CA 79 E3
 DF 1C 2A 16 0F 79 50 3A 77 92 EA F6 50 59 41 1D
 89 FB B4 96 89 08 90 AC 71 F1 EB 2E 23 9A 95 0B
 80 15 78 41 2C CA 1E 65 64 75 25 59 1C 5C C6 E4
 13 97 3C 19 D0 75 81 E4 59 E4 63 15 4E B0 06 3B
 0E F7 10 04 40 1E D8 4A E0 AE CE 27 4E 90 B2 23
 C0 2C AE 5E 84 1C 49 06 76 17 CB 13 C2 49 4C E4
 F4 93 14 79 45 5A 99 AC 32 04 29 16 E0 1D 8D 8B
 00 97 49 9A D1 18 02 59 7D 1F 47 DB 53 12 D3 75
 3E 6F 80 37 37 68 C0 85 B3 FA 8A 69 71 D8 F9 99
 1B 9E A5 16 5F 93 AC 11 69 64 A0 5A 4F 1D AA 10
 DA A2 16 F0 20 B8 12 5F 81 44 28 9D 41 66 8F 12
 4C 47 DE DE 71 A8 A5 F6 B1 F7 76 4E E7 29 06 0D
 59 36 EA 23 A3 B0 26 18 2C 13 5B 2D 49 0F A1 EC
 DB DF 03 5E EA 48 79 63 AB D4 6C 71 28 06 B7 61
 8E D8 86 02 9B 80 9D DF 26 CA 3A 57 31 6D BB FD
 D5 92 22 0F 17 1D 24 96 1D 65 E6 AF 34 37 57 7C
 49 F8 43 37 E7 DC 63 9C 5C 39 77 57 1F 61 28 2C
 6F 02 E3 E7 9D AB 7F 81 47 96 E2 AA 88 3E 31 68
 54 A5 0C 1D FD 0C CB 3E DA B1 A7 3F F9 12 DE 44
 FD 69 9C 1B F1 E5 1B 10 25 B1 F2 A2 EA E0 B5 8F
 6A F2 13 FF 97 48 32 43 2F 44 51 26 C3 DA 0D 3F
 81 89 CB 42 40 A2 A6 80 40 D4 03 C8 EB DD 6A 80
 FC 8C 24 84 5C 34 1D 7B AD 71 D8 D8 C1 48 33 AF
 9D 6A F0 3D B1 C6 3F F8 35 31 63 F3 3C 15 66 3A
 B6 9A 68 C9 8B F8 7F 76 92 98 62 F1 82 F4 B2 94
 7F A4 9A 65 78 D3 8D F5 97 FA B2 99 5B F3 22 DE
 4E 2C FD 27 F7 B3 BE B3 2B 20 24 66 CE 02 23 C0
 A3 30 1B 3E 26 2E F0 3B 1C 50 C6 F5 F7 15 3C 6C
 74 1D F7 FA 99 57 9D 24 5A 6A 76 C4 51 C9 B8 73
 03 17 7E B0 A0 AA 9E BC F6 AB 59 EC 14 17 62 99
 12 6E F8 B9 97 CD B4 39 5D 4C 50 2C 67 00 6D 41
 67 8D 23 0D F0 8B 2C 0B A0 16 DE 15 3E AD FE AF
 28 B1 2F 39 98 DE 98 B9 0C A7 2D 8E 8E 88 E8 A6
 FE 9D CF 13 D8 05 97 1F B3 0F F8 5A E6 F4 B2 97
 AA E2 CB F4 BA 18 E9 E6 72 2E FC 71 4A 58 A7 23
 A8 B0 BD 67 AF 2B B6 4E 77 87 C1 FB 3E 15 98 53
 9C 8E FF 93 11 AA F7 27 28 BB 05 B1 67 44 F1 BB
 C1 05 ED 70 07 8E A8 27 60 57 B4 08 D9 C9 AF F6
 0B D5 E5 41 66 F3 AF 05 DD 85 15 64 BC 46 55 CB
 6A 51 E1 88 D3 5C 8A A6 09 1B FB F5 3A E7 81 36
 50 1E BA A4 06 82 E2 BB 7A 2F C3 89 D3 7F 0B 61
 A5 D7 E2 37 C8 27 FB 86 6E DF 2F 0D D4 08 B5 90
 5C B4 8B 25 B5 0A FA 1E 1A 7D 02 CD C2 A0 6C B0
 9B A3 BA 0D A5 C9 96 DC D4 2E B4 8F A9 EC D9 43
 D0 C4 95 4B A6 46 5E BC 1A 5B 8E E3 B5 3E 6A F6
 C4 E3 6F DC CC 6E 68 79 35 5B B7 08 51 D2 29 0C
 B6 FB BB A1 65 5C 16 1A 60 FC 1B 05 1F D9 1E 8E
 4D 5E B5 AA 68 69 A5 DD 4A 4E A2 1E F8 D0 2B A3
 C4 13 11 A2 4A 48 A8 DF 7A AE 5C D2 7E 01 C0 18
 B4 2A 7A 92 9E 8E A6 25 76 38 07 07 41 93 33 94
 D1 E3 52 CC 30 33 56 C0 F1 17 2E AB F5 B4 17 A8
 6A 21 9C C0 76 D6 82 18 24 47 FD 83 DC 0C E8 EE
 32 09 FF 59 1B AF 66 5B 60 63 44 62 39 A8 F2 7A
 CC E4 F2 F5 14 90 E1 CF 87 05 1B 08 82 DE 49 0B
 A4 D5 1A 63 6C 07 E8 FF C1 54 74 99 70 C4 A7 8A
 A1 B5 62 AC D2 ED BA 59 04 F8 AB A8 DE 34 75 53
 79 62 7D 7E 20 63 5B F3 A7 19 71 6D C4 A3 83 AB
 0F CC 04 B1 E3 72 88 67 05 8F A4 0E A5 DF D5 D1
 30 4F 19 59 BD 29 FC 1A 1C D5 20 BB A4 47 D6 EF
 85 A6 3A 58 3A E4 F2 74 B2 50 27 45 21 CE 8A A8
 8A D5 0A 65 EC CD D3 5C 4E AD D1 56 4A F2 6E D0
 D2 E4 9A 6D 3C 01 5A 46 2A FE 7D F5 B4 3B 2F 68
 1A DD B0 39 69 30 2A 5F 9C E8 3A 45 F5 01 ED E8
 0A 55 84 E2 3F 2B D4 3B C2 58 CF 37 C9 3E BB 61
 BB E5 5D 23 0B E3 0D DB 24 9B 2E 0D AA 07 11 30
 F0 58 0D 98 53 E1 35 AA 65 18 E7 88 B3 21 49 84
 F8 11 4D 01 31 D9 6D 39 43 90 F5 9E 3D 8C CA 6A
 E0 9B 5B E8 51 7D 94 F9 EA 3D 82 C0 85 72 BF 99
 41 76 72 BB B3 53 AA 7C 26 C3 2D 2D A8 6C 88 8C
 47 AA 3B 99 1B 9B F7 26 1D 01 20 06 E8 12 4E 65
 13 3C AB C2 5E 30 50 B0 5A 2A 9D CA 1C CD FF 0C
 21 96 7C 9F 2E A8 5C 4C C7 11 A1 AC 7B E3 52 71
 60 63 81 E8 61 FF CD 6A 3B E6 D4 0A 2C 84 3C D3
 D0 2F D8 DF E1 D9 09 EE 4C E5 91 6C D9 A8 1C 14
 AC 1B 30 D8 17 30 DA B6 77 95 D8 F1 62 01 AF FF
 C3 A3 7A F1 E3 1B 7B E3 05 89 82 CF EA 0D 18 F0
 39 76 9B C8 22 44 D9 4E 71 6F 09 9A AB 71 85 3C
 76 20 55 84 D3 2A F0 40 91 97 F5 EF 90 CE 53 AB
 16 B7 4F 47 84 08 DE 78 12 BF 15 3F 49 E2 98 45
 C9 E4 A9 5F 94 FE F4 64 78 6C 95 B1 73 90 03 C7
 EC 2F 97 05 6D 8A BE 1D E7 54 31 5E 0E B2 9B 1B
 15 CE FD FF 12 F0 FB 9B FA E0 D9 BE DA 89 CF 08
 5D D7 B5 46 E9 E0 D3 F0 6A 89 ED A0 6B 98 88 1F
 31 1C E3 36 B4 E2 80 4A 3D 88 30 6B 98 0A 81 AC
 CF B5 9D 7C B7 0F C1 B1 06 8A 7B 47 E4 50 30 07
 30 A4 C1 78 8F 52 4E FC A4 6C 82 42 02 02 45 9D
 B2 3A B3 74 8F C6 A1 26 62 FB E3 B1 36 FF CF A4
 18 33 FB 02 15 EE FC 6D 4D 86 3E ED EF 8A 90 7D
 BE D7 B1 8C 42 77 03 D9 C2 D3 82 A5 5E 2B 25 1B
 1D F9 01 76 1D D1 BF D7 2E 9D 76 82 C4 59 BD A6
 73 06 49 93 72 B4 0F C6 0C 99 C6 E1 36 32 DB 7D
 41 2C 58 F9 37 98 BC C0 D2 CB E2 D0 F4 81 3A FF
 7F 81 47 76 57 7D AC CC 5E 41 69 C7 90 1E 51 D8
 2E 88 B9 E1 A0 B6 EC F5 37 6E 54 1C 0A D8 CC EC
 02 B8 AF 19 53 52 31 04 B5 9F 5E 1C 4A C0 E5 7A
 6F 2A 68 00 5D 5B 11 35 86 23 9B 8F EE 3F E8 98
 D9 89 F9 3F BA 30 3C 12 E5 2F 6F E4 EF 73 4B C7
 B7 F6 F1 37 44 78 71 E0 EA 40 9E 21 6A 9A 8F A6
 55 0E 6A 61 27 F5 63 97 B1 49 8A B1 04 F3 83 13
 0A 9D FD 24 70 FF 63 7F 8A A3 45 CB 78 CE 04 89
 F5 77 83 6E 79 89 D8 11 83 36 F0 C5 32 CA 17 FA
 0C F8 A2 2A FC 3D 84 1A C1 11 0F CE 1C 2D 35 01
 26 C2 5F EE 45 1D 9B DD 3D E4 2F 1D 73 2C 13 94
 DE 14 71 26 A2 C3 77 A7 C8 9D 09 84 C4 4A 40 B2
 E8 6C 0B FC F4 D7 1F 0E 17 ED 45 9D 89 6F BE FA
 CE BD B9 77 1E 6E 68 05 1C 2E 3B 71 D6 5C 01 0B
 42 1F B6 DB 56 E2 CD D1 07 07 22 96 C3 E1 F2 29
 16 EE CB 02 8E FF 35 A2 AD B5 EF 9E BE 18 EA 70
 C8 CD 6C AF 4B AE 7E 35 52 2B CB 99 F2 A4 67 CA
 24 78 CA 62 63 38 27 47 1F 0B E5 0A 14 AF 38 44
 7B 75 A8 A7 44 50 FF 0A 73 D7 D0 3B B6 FE CD 85
 19 D1 47 EB 0B 77 9E 37 6F 88 17 A6 74 7D EE 9F
 75 F6 CA 7E FF 6D E0 AF 25 DF 0C 43 65 03 51 49
 CA 9F D9 CB B3 12 41 53 AC 9E 6F 1B 3E FD AD 74
 C1 73 B3 C9 DB 32 3A 1E 4F 0D E3 4D 5F F7 2C 3F
 3E F5 CD 56 67 A1 FD D9 03 1F 82 81 2F 79 8E 87
 4B 08 A9 9F 51 82 12 E8 17 08 15 6D A4 7E B3 DA
 54 BF 38 D4 14 7A 21 D4 78 D1 1D A7 E5 DD 7E D9
 F4 B0 D6 60 14 53 39 90 6E 09 81 BB BC D2 E0 3F
 32 BC B7 DA 96 DE 62 06 96 8C 3A 56 96 9E A2 27
 BE 25 8C 2D 02 57 B8 B8 52 D5 B5 99 08 15 93 F3
 CC FE 20 6B 6D 92 A9 00 AB 05 48 28 E0 12 C4 3E
 CB FC 08 07 5D 3F 85 86 66 9A 35 AB 53 7C 34 40
 0D 07 35 82 FD DC 4F A4 C8 1B 1E C6 A7 03 F3 60
 68 66 4F 13 BD 39 CC DF 6D 58 7A FA 86 34 15 EB
 27 2B DC 55 49 95 78 A3 D5 86 26 E1 D7 7B A4 87
 12 EE B7 2C FA 88 93 DF F8 BC 96 3A B3 28 56 AF
 19 D9 F6 C7 A7 B8 41 0A F3 C1 46 D2 7A B4 6E FF
 EA 3F 89 5B 0B 36 74 7F CD E6 9E 10 F9 7E AD AC
 55 A1 B1 40 2C CE EE 3A 3F F1 D6 36 2C C2 53 73
 6E 8E AD 3A 10 5D D7 1B E2 47 63 93 5E 6C 00 47
 12 77 10 52 48 ED 42 F2 ED 32 B2 E9 69 86 42 0E
 53 31 6A E4 44 C0 93 C0 D6 10 8E 2F 14 55 D4 29
 8A 84 6A 64 D6 82 E9 2B EA C0 F1 70 C1 2D 0E 84
 A1 2A 22 20 8C FF 2F 02 CD FC 69 02 3F BF 2A D4
 AE FF 1E 98 76 2F 60 64 85 B5 52 BA E9 E1 A7 2F
 54 F6 6A 5E D4 A9 88 71 1F E2 6F AD 0B 40 1E 26
 6D 4D AD EC 04 FC 8F 3C C1 D3 DC BD 63 12 38 E1
 F2 97 25 B1 7B 08 8C BC D7 2D DC 3B A1 0C 80 2E
 24 74 2A EB 2B B0 B8 90 40 97 79 AE E3 12 F7 42
 F1 28 CB 42 68 BC CF 56 AF 67 42 A3 38 53 FE DE
 7E 30 EE EE AA 4F 26 87 69 02 42 AF 8B B4 ED 50
 CC D6 0B 38 10 9C 0B DD 63 1B FD EC CA 42 3F E7
 6E 16 9A 4F CF 5E FD 23 65 24 70 AC 85 E9 C2 9B
 9C 72 0B B3 93 08 24 31 A3 9A 32 D5 23 FA AD FE
 43 74 98 C3 D2 B3 9B 83 5B 39 4A 6F 84 56 EA 59
 1B 1A 98 7A 6B A2 AD D8 83 7B 8A 0A 11 D3 2E 8E
 A6 E5 13 B0 73 7D 30 22 81 0D 66 0D EA E3 0C A9
 AE 57 32 C0 D9 52 EE CE E4 DF 7B 10 C1 51 6B B5
 47 BC B3 06 E9 EC 68 62 8F DC A8 BD E8 2B E5 D7
 A9 C4 2E B6 1F E8 02 0C 15 B1 F8 69 8F BA 2A 97
 28 31 CF 19 12 25 0D 32 61 A1 00 F1 54 F1 03 D6
 79 A0 63 19 77 05 5B 3E DC 46 C1 8E E9 6D D3 AB
 54 F1 1C BC 45 B3 B9 77 56 38 80 FB F4 BE 2E 4B
 13 49 F9 E5 13 46 59 A8 C9 8F E7 0D 4B B5 1A 2F
 9A 3D 76 17 F4 67 8E 7B C3 C9 DE 04 04 C4 BA 33
 77 9A 86 22 AA D8 7D 36 7B 27 6C CA F9 D1 A2 13
 B1 76 21 86 30 69 AC 90 3B B3 1D FD F9 14 E8 7C
 AE 56 43 D9 CF 6C E6 2A EB EE 62 FE 40 BD 6A BD
 BB CA 12 3B C0 6A 9B 32 66 53 12 D5 79 D0 E4 EE
 88 CF 1C 5D 71 D5 41 B5 B1 B3 DE 21 16 0B 21 0A
 8D 0E 17 CE C5 07 01 63 0E B8 13 29 5B F1 F0 18
 14 7A D2 23 1B 68 49 54 3C FD 5C 6E 74 BF 3E 63
 11 2C BA 84 7C 0D 98 76 05 CA 6B 6F E8 CF E4 CA
 BE 38 3F FD B5 20 5E 3F 3E B2 F8 F6 A3 DA A4 5C
 A0 15 F0 83 B2 01 E7 84 C5 95 C4 C9 6C 47 D1 B6
 30 13 75 7A 0F 39 D3 CC 9A 5E B2 27 78 2D D7 D8
 31 58 3B 25 D7 4D CB 91 75 1F 34 1D 13 31 AF 9D
 2A 8E D1 21 7C E6 09 38 BE DB A0 A1 C1 57 40 C5
 19 F6 5B 6D DD EA 20 C9 7B 8A 41 95 F0 EE B8 DF
 4C 2E 52 0D 0D AF 6D 3A 82 6D 43 06 8B 52 11 75
 99 A5 A3 9D 98 E3 36 E6 DF 9D 58 F1 EE CB E0 DE
 EF 40 60 FA FD 80 75 E0 AC 67 51 C7 CA D3 DA 3A
 2B 93 80 14 55 1F 7F 2F 47 DD 9E B8 11 C6 87 9A
 3A E9 A0 05 83 3B 5F 31 E0 10 AF D8 19 89 16 65
 6A 01 AD 3E 3A D4 6C D1 6B EF 5E C8 4F 1F 78 D3
 71 C6 B5 49 83 E3 02 EA 87 16 E2 30 CF 78 3E A3
 69 48 EE 3F C3 A7 67 DF 80 F8 F2 8F 5C 3D C9 84
 80 BC AB C7 CF A5 B1 4D E1 11 1E 75 C1 E4 E6 18
 CD CB A1 F0 EE B0 23 9F 53 7E E0 A6 8B DD CD 26
 C9 84 AE 34 E1 DC C3 B0 75 52 EB 6C 56 37 E1 80
 1F 6D 4E F3 E3 02 CD 2D D7 A6 5F 7D 04 E4 FB C1
 27 7B 63 5A 02 26 0E E3 C3 61 56 04 59 82 90 6C
 70 CA 8F EB E7 0F 49 C6 81 6A D7 A5 C1 ED F2 9E
 02 60 62 17 3B 8B CB E9 A5 15 6E 3C 1A E0 57 BE
 72 3F BC 4D 28 BE A0 75 D4 2A 51 15 C8 ED 54 48
 48 77 F0 DC CF 6E 9E 5F 4C 8A 0E 2E 6D 2A 5C E7
 01 D4 10 BF 49 71 22 56 D5 10 6F 21 7A CB 29 8D
 32 E0 E8 11 B6 79 CB BD D9 B9 C3 3B 26 65 99 07
 88 AB C1 7F DA E4 E0 03 69 F7 65 D0 6E 94 4F FD
 FE 33 48 45 4B 38 75 90 DF 05 DF E4 F1 2B 80 D1
 02 C2 CA 1A 56 29 73 2B AB FE 94 B9 A1 17 19 0E
 4A F3 B2 9B 02 74 D8 DE 37 4F 2D 76 09 E9 8F BE
 69 9D 0D B5 94 3C F7 67 0E 5A A7 AB FB 4F 2C DF
 78 4B C0 50 A5 C1 C5 09 D4 50 1B A5 0A 71 A8 70
 29 D6 EF 88 0B AB DB 6F BD FE 89 B5 78 5D 69 D9
 34 A8 31 5C D7 3E B5 2D AF 2C D9 93 2D E9 59 C7
 55 59 45 81 51 3A 07 40 9B 2A 6D 89 1D 1C 82 B1
 F7 39 26 22 A0 7A 97 50 26 82 F5 76 71 E0 59 08
 16 25 C4 27 D8 98 6C D8 4C 1F 7A A3 18 DD B2 26
 C7 30 1A 67 54 80 0D FA D1 99 6E 0C 88 9A 47 74
 71 8F 99 E5 FD E3 99 4D F6 A0 D5 0A 9A 20 B7 9D
 00 CB F4 11 56 9B 89 F4 B8 1E 4A 81 16 07 F7 9B
 A2 F9 5C 7E FC 6A 35 E4 0D C1 EF DB 52 12 FC 47
 22 F6 E1 62 5B 9B E6 A6 71 E9 41 1B E5 AE 60 F7
 17 21 01 45 2B DA 54 97 49 58 8F 98 4C 5C 8C 71
 0F 1F 07 AE A0 CE 47 B5 E6 75 BC DB DE 7D 44 77
 55 25 95 A8 82 08 78 61 E0 42 B1 99 C1 60 3A 0E
 CA 19 09 0A ED 6A CC 08 21 AB AB 76 CF E5 45 5D
 BA E7 66 85 D8 8A BC 64 A0 68 BC CF 57 65 C7 7A
 CE 16 B2 84 7C A0 5D 31 21 F2 94 45 95 68 C8 03
 B2 5F D3 B5 BC 8E 35 AF 01 E0 6E 71 5F 73 2A E2
 CB 53 CA 8B 0F 1B 4F 44 64 E0 CC 16 DA 8D 09 6F
 89 3A 05 57 D2 01 BA 60 C5 88 7C C1 67 18 7D 16
 24 01 0B 2B 2D 49 E6 59 11 9D 5D 83 9B FB B0 20
 4A B3 06 5C D8 26 4B BC D6 BB 95 ED 9D 6D D0 40
 EF C3 F9 D0 EC 4C 7E 64 D4 98 0C 2E CD 58 A9 A8
 24 46 71 C2 0A D6 06 7B BE 69 9D 5B 58 D4 BF D3
 99 DF 9B AF EB 4C B7 D8 31 81 AF A9 1C 3F 49 B7
 87 4E 71 33 01 8D 20 E5 0D 3D 43 9E 1C BC 8F 51
 06 65 18 9B 26 74 81 BA 63 9C 7E 6B 88 99 C8 CF
 D8 3B 98 CE F2 E5 23 92 40 A8 16 7B 97 66 D3 43
 5D EE 16 29 FB 7D 5A E1 B1 6B 4B 2A FB C4 09 5B
 4E 19 6E 53 55 E5 52 9B 99 9A 5D 47 03 74 56 90
 6C 0E 24 BA 60 51 BE DC 71 4C 10 43 C7 32 9F C4
 08 B7 97 7E 10 75 9E DF 0A 69 8A 2D 55 8F 82 63
 2F 70 7B AE CE 47 E5 B6 80 EE 5E B0 1F 37 0B C6
 BB 2D 63 3F 2E 51 68 4B BA E7 30 C4 49 D3 2A DE
 3D 25 01 12 B7 F1 A6 B0 29 F0 E4 C2 1A EF 3A 13
 60 01 65 99 C9 C5 95 B4 9B EB 3C AF 53 4B D7 54
 13 05 3B A9 BF 9D D6 C5 D8 37 68 44 43 F9 DF 7E
 78 71 17 56 4A 48 D5 C6 8A 85 7C 5A 7D 43 74 74
 14 94 83 53 1B 5F 55 BF A8 9C D0 7D 73 C8 2A FB
 6B 4A AF 66 3B AC DE C9 9D A6 D3 CD C2 A2 9B 41
 14 83 5A CD 90 BF 91 1A B7 5D 15 2F 83 60 BD 08
 9E 25 C2 42 ED 1D 66 AF DB BD 16 D7 ED 0E 7B 9D
 E4 AB CD 14 FD 4B 45 4C C4 72 5D F2 B8 1D C6 F3
 AF 2D 1B 6A 59 20 1A 19 6B D0 6B 65 48 46 F0 5E
 66 09 81 1C 23 FE BC 34 F5 AF 26 94 5B F0 91 E5
 A2 0A C0 05 2F 1E 99 FE F6 95 2A 83 0F 56 7D 37
 1A 10 45 B6 FD 34 0B 9C 07 3C D2 9E C6 E0 56 24
 98 0C EC 4E 70 D8 7B D7 0D 7D 0B 90 49 B6 FE 73
 E8 4C 9C E0 D8 EB 94 36
* End 2094746592 3327796945