* LTspice Encrypted File
* 
* This encrypted file has been supplied by a 3rd
* party vendor that does not wish to publicize
* the technology used to implement this library.
* 
* Permission is granted to use this file for
* simulations but not to reverse engineer its
* contents.
* 
* Begin:
 E2 74 5D BA EE 74 C8 E2 65 60 31 3E 95 27 15 35
 14 57 06 C7 E7 4E 88 95 A3 97 4A ED B7 1A 24 7F
 A7 2D C5 63 F9 35 2F 31 4A 4B D5 9E 6C 09 5D 97
 69 2B E4 CF AA F8 A6 DC 02 2E 64 2C AE 8A 47 61
 AE 82 CE AE 1A 83 9D 29 1E 79 C7 E4 C4 B7 90 2A
 1C 76 E4 C1 2F 10 C6 F2 B9 84 6E 78 9E 04 04 1E
 51 1A BE D2 57 9A A2 57 E0 80 9D 83 34 11 67 9A
 A9 82 C0 BE E3 A4 23 F9 B2 78 A7 49 BD C3 C5 6B
 73 7C 9F 77 85 9D 68 88 C8 00 03 25 AA 99 4B 32
 5F 11 F4 EE 6A CB 57 55 71 7A B6 6B 46 83 93 42
 2A 5E 3C 97 DF 2B 6E 77 9B 3D 32 39 D1 01 9A F5
 AF 2B AF D0 F7 9F 8B 87 E4 C4 A1 31 67 79 2D 9E
 7E 83 9C E9 FE AA 26 EB DD 24 43 90 FD 48 E0 C1
 57 E8 52 C9 61 FB 7F AC 22 0F 85 59 C8 07 01 D6
 6C 43 23 50 AC E4 01 47 71 C5 CC 03 50 3F 24 A7
 D8 A5 FE 14 65 63 F9 CA 84 36 0D FC 6E 14 AA 2F
 0C 63 5D 02 7A EF 81 36 73 61 B8 7A 5B 5A 56 4C
 FD E5 09 DE 66 B2 F9 EB 05 58 9D FD 1F B1 2B AE
 93 AF C1 38 ED 8F BC 14 73 46 CF BA 70 DC 7A 39
 9A DE 12 01 95 39 8C E2 85 7F 93 40 A0 09 3F 63
 54 85 66 3C 29 55 B2 EB C6 D2 F1 2A E6 B3 FE C2
 C8 D6 B6 BD 32 B5 2F D6 75 18 DC 77 E2 F8 E1 4B
 37 EA 24 E4 A2 DE 17 1C AB F0 C8 80 FD F3 88 55
 A2 19 A5 0F F2 81 2E 95 9A 2A 77 60 44 D5 41 CF
 CF EA 5D C9 42 60 62 F7 5C 48 20 7A EF 77 46 82
 1C C1 8F 48 17 5B C2 60 1E 92 08 7D 54 EB CA 6C
 1D 75 02 1D A7 AA A5 A0 0E 46 7C 36 D2 36 29 30
 32 FF 77 87 27 17 20 19 16 8F 72 B6 BD 2E 5D 7A
 8B 83 B4 C8 60 BE 83 09 F0 D0 8B 7B 4B B3 FF 1D
 DB BA 3E 2D AB B8 94 CB B4 2E 7F 29 38 25 8E 43
 8C 74 C5 2C F4 03 9A E1 02 EC 5F 7B AF 31 6D 10
 29 D5 22 71 B7 AC 24 E1 F6 BB 97 43 42 5C 57 1D
 9B CD C0 F8 17 4B D8 01 17 97 E0 36 0F E3 3E A6
 72 8D 1E 86 CB 33 DB 88 B2 A9 F4 FC FA 95 8E 5F
 20 01 6B E5 5E 91 76 03 7C 06 B1 F7 83 BE 98 24
 6E 25 AA 61 33 B0 38 82 AC 14 A2 0F 12 EE AA 3E
 0E 27 5B 48 A4 25 60 6A 30 7D FE 63 1B 29 8B D6
 46 09 66 0C 2B B5 90 05 15 69 74 C7 A5 20 A1 C2
 B3 1F 3B 6C B0 9D D9 F7 2F 67 71 43 0D AA 2E 76
 62 06 1F 44 07 02 61 1A AC 57 56 23 9D 50 42 08
 38 AA 53 E1 A4 FF 2F 2A 12 0B 10 18 C7 52 73 A4
 01 09 A5 28 73 77 53 74 BC 32 68 42 B2 AC B7 F7
 6B 0C 9E E1 EA 4F 6E EF 28 13 47 87 36 85 1F 75
 A4 C2 DB E7 B2 C4 97 DA C5 C8 0B 25 D3 BE C6 C7
 31 91 CF C8 21 B0 0E 63 89 F1 55 81 9B 55 05 E0
 55 DD 3F 90 FD C3 F0 B8 8A C8 9C 7C 7B C4 91 1F
 25 68 3F AD EF 9E 5F 6D 19 9F CB 9D 07 62 59 F8
 85 10 84 6E BC 5D E1 CD 65 A8 67 8E 3B 35 80 B6
 15 98 8A FA BF F6 C8 50 74 46 0E 82 BB A8 C3 46
 BD 1F 85 8B D6 2E CC 47 C5 BB 45 AE DD B1 27 95
 8B 56 D2 AC D3 E7 C5 14 2C CA AF D9 99 6D 81 09
 FE 5D 1B 84 0F DA E8 EB 61 50 4B 12 7A 02 7B 72
 FA 82 A2 54 FB 27 D6 17 F5 F5 E6 A0 7E F2 46 E9
 38 86 89 51 7C C2 B2 84 BC BD FA C8 13 33 46 2E
 82 30 BF 1F CF BE 01 EE E3 6A 02 8D 23 5D 39 23
 C5 65 6D 42 29 FC 5C D3 09 F1 D7 C1 1E 49 49 86
 0A 18 B0 38 71 09 06 1F 87 F2 04 AB 69 59 01 37
 04 04 8C F5 1E 73 CD 99 6D 56 5A 19 63 AC 6D 59
 CF EF 7D 27 F8 7A BB AC 64 5D 48 EE 00 BE EB 86
 1C 85 68 37 94 3B 74 C2 FD 3D A6 3F 0B 89 13 F7
 18 4F 00 5B 78 C2 21 C3 DC 75 93 91 02 C3 3A 9B
 5C EA 35 AF 93 1A ED C2 5A A6 EA 53 27 52 29 68
 B6 46 1D D8 94 33 93 18 F3 8E 12 82 72 61 0F 89
 49 11 C8 AF 58 07 07 1B 1A 84 0D 0F 41 54 CA 04
 E7 3E 68 1B 39 F7 09 FA BB 03 51 5A CA 9C 40 0F
 BA BD 7B 9F 4E 80 C1 CA 0A F3 88 90 7A 84 BB DD
 4A 2F 35 AD A4 E7 CB 29 76 BC 1F 20 19 82 EC 2C
 46 48 7F 7E 5C 78 D5 DA CC F2 FE 6B 2B 7A F0 66
 8A A9 56 B8 D4 48 A4 BC 8F F0 E5 33 31 B0 03 19
 69 C3 BF FC E9 42 03 BE A5 95 50 31 1B 29 AB E5
 F9 C9 9F 16 7D 92 92 DD 97 FE DC C3 1D 20 D4 D6
 A9 E4 64 28 56 5F 9E 5C D0 D8 37 2B 7A 83 F1 83
 43 7D 03 60 21 DE 5E 88 FF 35 45 05 02 D7 C5 06
 B8 F4 67 FF 88 1B 9D 87 C7 6E 51 6C E7 B1 DD 46
 80 03 CD 47 B1 19 B7 F9 ED 2A 20 B3 FE 96 1D 09
 CB EC 6D DC 61 57 06 BA D7 D5 63 01 94 43 BA A6
 57 12 37 CB 36 FA EB 62 7F 80 39 AC 41 38 CF 06
 42 AC 8D 71 90 94 21 30 2D B9 BB 18 BE 81 51 D3
 85 7F 51 84 37 44 00 48 8E D5 8F FA 88 C6 F0 56
 10 1F C5 EA 99 AC 71 69 24 3C 53 2A EA 74 81 D6
 3D D9 00 26 EB 46 76 3A 8C 61 DD AA 9E A4 85 1D
 09 6C 17 CE CE E9 E0 70 0F EE 7C F1 B3 B7 B3 52
 8A 3C 87 75 F2 B7 99 76 DA AD 9E 50 B1 B3 F7 61
 2D 2E 84 B9 5A D1 EE 63 C4 F3 5E 15 F5 10 2A E2
 38 AB D2 B8 BC C0 BC BD 63 A0 1D B0 EC CA 52 96
 88 34 39 B0 45 52 7B 4C C7 19 46 80 3D 3A 6F 01
 35 A0 BF 6B 65 90 0E A8 2D 32 13 CB 51 9B 66 4E
 4B EE 00 AF 50 BA 5C 9E 26 BC 77 FE 2D C9 DF 9D
 85 9C 9E BD DF C6 6B FB 16 8E D7 87 7A 22 6D E7
 AE 2C BC 84 5C 23 2A 7D AA FA 66 1F 5D 51 E8 A7
 AC B5 E6 EC 7D 0E BC 11 D5 F4 E7 3B 5F F1 90 4B
 B5 23 ED 1D EA 32 65 D5 A7 22 BA 49 D7 3D 03 38
 AF 3B 26 71 8B C2 F6 FF 7B 36 EB A3 2A F7 12 FB
 64 48 8C 9B C1 29 C9 B4 14 DC 36 DF 33 C6 48 98
 88 55 65 F1 05 F3 46 88 6C E5 4B 58 61 D8 71 A6
 05 C5 6E D1 E0 FA 6B B8 A6 8D 85 A8 B6 C2 CC 68
 47 03 6B B7 FD F6 55 4E 8B 6A D0 CD FD E9 CE 92
 57 3E FA D2 7F B2 FD B0 B7 89 58 73 71 FD 58 85
 CD A8 FD A1 83 5B AC C7 3A A4 3D FE 7F F0 0D D0
 D3 97 41 47 93 5B 84 9A 94 D5 16 82 BC 9A EC 4C
 24 E4 66 33 03 2C 09 50 C0 F1 E5 77 4E 4A D2 50
 E4 79 8C 1A D2 F0 AA F4 59 A7 19 E3 BD 63 4A 81
 5C 8D 3D E3 8A 4E 77 B2 95 27 EC 5C 1B EE 1D 2A
 01 00 6A 3F B4 09 52 35 EB 98 50 7C 24 81 9E 78
 05 E6 42 C1 1B 3D 86 C3 04 D5 FA C6 8C 31 46 F1
 56 53 35 EC CB 1D 8F 0C 6E 03 31 34 F1 03 57 4F
 8A 43 B7 A6 2E D8 56 6E DA CE 11 F7 61 F2 52 A9
 55 F4 B2 0C EA AC D4 55 B3 34 DE E2 47 6C 64 0D
 F0 8A 05 28 4E A7 2C BA 2A 02 57 34 F3 DC FF A1
 71 0A 19 98 24 4B 96 CA 8A 26 3C 21 79 37 7F 7B
 63 1E 13 46 5F 95 B9 75 38 2B B6 D3 CE 96 10 BD
 C5 5A DE 20 F8 1F C1 09 E7 71 7D 9D F7 29 38 93
 84 59 25 C0 58 84 47 5C EE 4D 09 04 EB 39 77 E0
 4E 82 DA 82 65 3D 58 43 90 4A B1 2E 60 31 0B A3
 2F 43 77 0B 17 21 1A E7 DA 70 42 9B D4 83 AB ED
 14 B3 E0 E2 1D 82 84 C9 83 12 28 6F 36 61 13 A1
 D4 B3 D6 56 D8 22 88 AB 73 BF E5 C9 90 B0 40 E3
 CB 21 C0 6F D0 C7 4A 40 D0 3A CB 39 FB 60 9A D4
 3D F3 9E 66 A9 86 9E 3B A8 2B 65 31 14 C1 F6 BC
 DA 7A E3 3F FE AD 68 E4 80 9F 8C 38 57 4A DB B7
 84 FE 31 29 5E 9F 66 B7 FB 79 93 D1 85 59 02 FE
 C4 67 47 8E 34 63 40 19 DC 9E 37 31 B6 56 E4 D5
 4B 62 72 02 BB 68 D8 5C FD EB 97 FA 62 C0 B0 20
 FB A1 04 06 C7 80 C9 24 6C 76 26 7F E6 3D E6 B8
 E1 1B F7 45 4C 98 96 81 82 6E BF C5 8E 8C 23 7E
 EB D7 12 97 D5 B3 9A A9 F1 DD 98 1A E6 BB 6B C1
 54 59 CA F3 B2 D5 15 26 60 D8 56 F0 9B AC BD D7
 13 46 2D 4B EA AF 83 26 4F 25 72 0B 54 7E 82 69
 34 03 44 38 3A 2D 20 70 8C 02 34 94 E6 86 47 D0
 C8 BB C3 5D 79 4C 50 7C 1B 89 33 67 CF B7 72 24
 3E 5D AB 4D 56 C0 10 9B 91 29 BD 7A 73 0C 98 E4
 0C 1A 92 5C CE 2D 45 EC BB FA 20 CE 59 2E 6B DC
 E8 C5 58 42 E4 0B DC 02 2A ED EE 8D 1B E7 CC 30
 D5 EA 8D 98 D6 AA 63 06 09 7B 8D 0C 94 B1 A2 28
 B3 D4 7F 1A 78 BF 08 49 86 85 B5 75 73 4E 7D 68
 26 11 32 DC 31 4F 80 7D 15 84 74 CF 9C 45 3E D3
 A5 C4 99 16 17 00 84 2E 2C F7 7A D5 B4 83 0B 20
 F5 01 12 1E 43 C6 5E 14 D1 33 AB D5 4C D1 BA 28
 D9 E4 A4 43 4D 47 DB D5 8A E0 67 1F 90 6E 07 0A
 EE 53 4D 2F 4F 77 86 DF 58 B3 F8 AD BE 38 64 D5
 57 68 44 BE EA 01 0C C1 00 3E 2C 1C 77 4E 1D B7
 4E 4C 3F 26 22 22 9B B0 81 4B 53 38 CA DD A9 EF
 FF F3 EF 09 B8 4F D6 A1 61 C3 F9 AE D0 6A 58 2C
 6D 25 63 F9 9A 79 2C 63 02 CD 57 75 D2 6A 70 C3
 07 BA 0D 4F 92 38 8D BE D5 7D 8D 17 42 35 F9 E8
 C3 61 20 53 DC 84 5A 15 44 8F B7 AA 8D 05 C1 F5
 CF 85 0B F4 FF 3C E6 62 76 CB 39 67 60 D1 CB 95
 C6 61 DC B5 AE 71 FB 4C F4 C1 D2 0F 4B A7 F1 4A
 A9 03 D5 86 6D F9 3D 58 CA C5 14 3A 5C 55 D2 F3
 5F 84 91 2C 1B 9B 4A 54 B1 BC 86 F0 17 BA 40 31
 E1 BC EC 69 B6 4A 18 9E 8A 9C 9A 27 23 D9 90 C7
 A1 4F 84 E2 72 58 92 8F 46 17 DB C0 EC 70 85 25
 43 05 58 20 72 23 84 80 7E 31 1E 30 B1 F5 08 CC
 A7 67 A9 A6 11 41 31 AC 91 F9 87 BA 2A 07 12 D6
 CD 61 25 DC 74 05 86 A2 E7 C5 C3 3E 60 E5 26 39
 1F E4 99 3D EB 0C 3A DB 7D F8 41 B6 90 F9 49 7D
 C3 E3 D3 59 59 9C 7D 25 1B ED 46 BF 79 ED 7D C9
 A2 2A 71 79 EF 26 A1 0C 7C 58 AE 88 E9 FA 90 F9
 29 2F 23 46 5E BB 10 AE 5A A1 F4 73 29 7A 8B 9A
 45 F0 67 DE 80 D7 47 B6 72 FF 9D EF 9B CA 0B F1
 A7 B7 A0 5C 84 05 7C F8 0B 77 CD 5F 34 49 42 3E
 E8 04 C1 4D 95 F4 BD 3F 47 80 EE AF D0 8F 7B 60
 03 78 5C 6F B2 07 19 F7 C1 8B 3F 2C 72 8B DD AF
 4E D7 73 4D 8D F3 C8 D9 CE 4F CA 6A FD BC CE AB
 26 C1 FF C5 95 44 18 8C DF CD 9E F2 86 CA D1 FA
 FC 71 69 0C 04 96 A9 BD 9E C1 66 FC 27 3D C8 02
 8F 71 EF 68 4D 63 BA C4 03 AF 84 6D BC 90 C3 E5
 99 09 04 AB 4A B6 58 37 E0 43 B0 02 FE 3A 61 DD
 3D 1B 39 7B 21 20 0F 07 2F 04 57 47 67 A3 CB BF
 3F C7 C8 17 38 46 7B 10 5C 9D F9 26 01 7D 98 C6
 68 40 6C D6 0E 80 B7 5B 64 C0 CB 73 D7 A4 8E 0D
 97 E6 5A 62 49 6F 8F 9E 7E 13 40 FE 18 B3 C7 5A
 55 28 E0 FB AA A9 77 B9 11 7A 66 F2 C1 BF 49 F2
 6B 35 DA 5A DC 6B 95 8B B5 54 A2 61 CB 57 48 AE
 0A 5D CE 9C 2E EF 54 B2 68 75 B5 93 48 C1 E8 A1
 C7 79 FB E2 AB 9F 6F 80 7F EB 1B FD B5 BB 75 F6
 0B 6C CB F2 5A 90 DE 19 9E 4E D0 FF 98 3B DE 6B
 83 ED 8C 78 95 97 09 B9 22 B2 B1 13 A2 B3 A6 8D
 8A 98 F7 09 B7 90 40 C5 BE B1 84 BE 00 67 EB EE
 E4 BB DF 4E 82 CA 6F 43 BC 8B DD 65 8C 4E 4A 06
 11 C6 F5 C0 43 F2 D3 76 31 79 2A D9 41 F0 08 62
 32 D0 0E BA E1 B6 0F 28 74 4C D7 EA 68 97 41 7A
 55 54 EC 20 7F 17 46 BF 8F A6 75 BB C5 78 DC B4
 5E 76 FD 7D A2 90 ED 46 D6 2C C8 1A 5A 56 1B 90
 71 2E C3 53 AB E6 6B 8B AD BD 0C 38 0C E0 35 A0
 C1 DF 30 C8 12 BD A2 62 1F F6 0A 96 F1 BF 65 57
 6C E5 90 E0 3A CB 7C 6A AF 3E 31 F3 B8 A3 F8 02
 05 A9 10 D4 F3 DE 25 36 CE 08 BF CD A4 37 85 BF
 C0 65 26 1A DF 70 19 CE 06 CD 78 E9 F5 90 B3 E2
 37 01 B3 36 E0 10 5E 81 59 AF BD CB 2F 69 D8 D9
 DF 32 70 B8 D3 EE 56 48 7E D2 1D 9A 0E 5B 5A 55
 B6 49 9C 08 0A 40 88 33 EE 5D 87 C3 8A 0C 66 70
 09 4B 24 7F A1 04 CA 76 61 A0 E3 AA 72 6E 92 EC
 F6 41 DB 89 73 C8 78 19 E7 41 64 A0 D0 18 83 0A
 1C FD 99 6C 29 38 9F F7 BA 5B 3F D7 19 99 65 9F
 C4 29 B8 99 44 A8 54 57 2B 2A 77 85 F8 C3 6C 17
 B7 D3 B8 72 2B 8E 88 7C 54 AD 58 24 A9 A2 93 DC
 8C E3 40 35 06 11 89 FD 55 1E B3 DE 2F DD EC D4
 3A 9D 68 32 F4 71 4D AB C0 F0 CF 5D 6A A9 AF AC
 F8 7E AC BD 69 21 4C AF 6C DC 95 AF 97 8B CF 2C
 DC FC 61 39 FD E0 4B 66 34 BC 30 67 28 A4 5E E9
 A2 FB B4 EF 2E 97 A1 A3 0C B5 72 DC 34 D2 E4 46
 5C B7 20 87 EA 9B A4 B7 0A F1 E2 B1 1D B9 28 2B
 A0 73 1D D7 53 25 C3 2E 8E 02 85 C1 06 20 3A 15
 F9 AA B7 DE B4 D8 C2 BE 40 F2 BE A5 D3 6A 43 C2
 97 0D 8D 2A D5 00 B7 0A C3 0A E9 7E 82 D2 60 BD
 F7 64 46 3D C4 C3 64 6E A0 F4 14 CC AD C2 EA D2
 80 3C E2 CF ED A3 F2 81 DD 19 21 AD D7 AB 36 F8
 B2 E5 24 4B F5 1F B6 AA 7B 20 D6 B1 6E B9 34 31
 B6 A8 1C 25 40 D4 E4 78 D2 CC 54 60 47 3E 70 76
 44 1F 52 5B 71 7F 23 9F 8D 48 D1 CB 82 EE 6B C2
 58 1A 54 DF 9A 9F 5D D4 72 2C A2 29 47 B6 B4 D1
 C0 31 9A EB 46 7E 66 78 A4 7D E4 1B F2 F8 B9 FF
 E1 1F A0 47 35 38 41 C4 1F 6B B0 46 3D 03 75 8A
 9A 59 47 A6 82 E7 04 F4 C4 BC 3F F0 3F CB CC 23
 27 E9 A3 61 47 20 08 3A 2B 23 97 AC 90 EA 1A 53
 67 20 CB FE 77 6A 4C 65 8E C4 7A 73 52 E3 54 B1
 FF 86 AD 08 8B 6B 2D 16 5C D1 07 62 C0 B2 7E AA
 EA C8 CE 89 33 21 20 9F 73 DF DA 87 4F E0 EE C1
 63 FD A2 25 6F 00 CE A2 64 AB F3 96 E1 77 8D 9F
 54 D8 E7 6B BE 73 B2 DA FC 40 4F 22 96 FB 5D D5
 79 95 E2 2E 76 91 90 A5 02 D1 B0 4C 3F 37 D2 F8
 5C 54 E7 A2 61 C0 AA BC DD AF 2D 48 F2 FC A0 22
 98 7D E3 52 B7 A4 70 61 38 E0 56 25 55 2D 9F 07
 6C FD 6A 6B 0C 3D 72 B0 1A D8 5F DF 71 B7 4E 0F
 4D 0A CB 7D BD 95 DB 7D CF 2C 60 86 4C C4 D8 56
 70 8D 55 1C 12 48 2A 63 4B DE 1E 0A FC A3 89 C4
 57 3A 08 16 4E 72 1B 12 E3 18 2F 7D 17 AB CB 51
 00 9F A9 08 1D 69 00 47 70 D6 FE 3B 51 61 FA 01
 BA 3C 89 0F 68 26 DD 8E CC DC 43 EC A0 50 1E 9A
 D5 EB FA 9A 6C F3 C7 17 AF 51 59 83 05 B6 3C 2E
 20 22 7B 56 90 34 C3 50 47 06 06 2E D9 0F C4 98
 DC 93 47 3F 62 BA 83 EC 00 A7 ED 06 B7 48 79 2D
 EC D0 96 BC E5 56 37 EF ED ED 74 5C 72 48 56 80
 EF 5A D6 85 39 39 2A 03 FE 0C 5B F1 B0 4B 16 87
 35 B6 68 CB 18 F0 58 B1 6E EB A1 2D 8B 45 72 27
 E6 4F B7 59 E7 29 12 B9 63 C7 FB 4B F2 55 F9 58
 9C E1 94 0E F2 9D B7 C1 EF 56 68 CF 24 5F 5A 7E
 61 BB AC 60 57 13 78 7B 9D 29 80 D6 6E EE 38 13
 77 32 3D 95 63 01 27 77 09 5C E4 CC E4 1C 0B 5B
 20 3A 06 0A 90 A1 64 7F 05 36 99 F0 52 09 42 B2
 2F 63 00 C5 9F 8E FF 97 61 5B 78 76 AD D1 43 9F
 FC 4C 9F F1 25 80 41 41 13 49 91 7D 0E 4E 14 15
 19 12 F0 1C 0E CB D4 30 2F 1D A0 C1 4E F1 E3 5F
 BF 82 11 5A CD A9 4B C3 5C AC 69 69 32 48 D7 1D
 64 3A 57 D3 34 87 28 FF B5 3D 96 BE 46 33 51 08
 EC A1 29 5B 47 28 95 49 26 CE E4 CB 1A 68 94 DB
 EE C6 37 D6 D3 F5 61 1E 23 77 06 8C 06 12 89 3B
 A8 1F FC 60 17 B9 73 E6 5D 4E 94 B7 C7 FC F9 A0
 A2 D1 4D 99 5D 16 13 DF BE 51 5C 80 A2 16 E3 B6
 22 0F A5 14 A6 72 17 6A A9 41 7E E1 35 1D 53 6C
 49 BC FE CC 8F D8 6F 37 A2 22 FB 60 86 39 DA 8A
 D8 A5 8D 68 06 19 14 E5 97 B5 95 A1 A7 D4 44 56
 6E DD FC 66 35 B9 98 BF CA 95 2E 30 4D 14 9A 45
 75 1D EA D1 9B 95 74 E1 7C 81 AB 81 BC 0A 97 95
 96 48 63 59 3B B3 77 AD 8D E2 BA 64 23 E2 EE 80
 C2 5A 18 9D 7B BC E9 55 80 43 53 F9 56 7D 43 9F
 8D 46 4E FC 59 F2 64 36 BF 47 7A F6 02 45 CF 90
 19 9F E6 6D 0A F7 E3 80 DF F2 67 8E 59 2D 16 9C
 57 42 6F 8E 48 38 48 29 F3 9B 87 96 76 1C BA 94
 F7 23 4C 6D A3 79 3F F1 2A 92 EA B1 1B 65 6E BE
 73 1C DE 4B 66 FB 43 B0 12 4C AD 73 6B B0 71 48
 2E DF 22 C4 8D 23 10 A3 A9 11 5B 94 9F 99 B7 A7
 15 88 B4 6A 24 EF 8D 64 2A F2 EF 1A E1 D7 EB 1E
 B9 8D C9 44 F1 B5 6A E5 CB CC 60 D6 0C B1 28 18
 11 AC D6 D1 7D 3F 0B BF E9 B2 75 A2 56 A7 B8 AD
 F4 1C 09 53 92 7D 13 06 2C 96 DD F5 CE C1 BA EE
 3A AE 69 85 10 18 B4 50 FB 64 61 D6 6D 6F D7 E2
 94 FD C9 74 A9 80 DD 28 2D 3B B1 A2 CE 75 24 FF
 E3 73 01 77 BB 2D E9 B2 DA 86 5D 72 7F 5C D2 98
 0A E1 C3 F7 BC A0 EC F0 12 F5 A7 78 13 4D 74 45
 55 F2 43 16 E6 BD 41 41 D3 71 FA D4 7C 5C 06 DA
 1F 58 1B F8 D3 BF CF 34 F9 E7 1E 72 DE CD 8B 38
 A8 25 20 6E 67 89 E6 22 D6 DD 5A 49 3E C8 FE 0A
 83 08 EC FF 8E 51 EC 04 AE 9E E9 4C 29 9F D9 6F
 41 4C CA 7E CE 9A 1F 18 A4 85 A3 CD 4C FB 49 C1
 A5 47 B3 FD 18 CD 88 35 95 8B 55 DC AB 2D EB D0
 74 9F 8D DB 5A 5E D6 58 2F D9 A1 58 57 87 2B B2
 BB F4 95 0F DD 32 CC 16 26 67 ED 20 F1 E7 05 24
 F9 F6 E9 EE 8E FF 5A FD 0C AB BA 74 68 95 24 72
 6E A4 CD 5E 62 73 BB E6 B0 43 35 BD 5A 15 EE 38
 EA C9 C3 32 4B 82 89 FC F4 89 3E FE 57 9B 4D 82
 4E 75 4F 2F 9F 15 6B 92 90 C7 A3 FE 2E 72 EA 15
 44 84 0A E2 AE 1B 3B D5 3F BC 7A AB 38 FA 54 52
 7D A0 7D B7 33 AF FD E8 89 CA A1 CF B9 DA EA C5
 E4 DB 35 25 3B E4 06 2D 95 60 B9 6A 8C 47 21 B1
 EC C6 F0 74 FD 35 85 9A 82 5A 6C 5E C4 0C 0D E3
 84 78 73 9F F4 44 39 A3 3C 61 F1 EB AC 33 7B 68
 E7 88 69 70 14 89 AB 8F CF 82 68 A2 7D 22 CE 70
 0A ED 2A EC BD 52 4A BB 7E 2A 38 D3 AE 70 1D 8F
 D2 E6 67 C1 A7 78 13 3E 98 63 54 F4 1C 7F 17 FD
 42 9C 39 C7 64 61 F2 D4 95 A5 36 2D 12 C3 1B 35
 F6 92 08 BF A7 8D 84 83 FF 38 E7 2B ED 72 3C 1A
 99 3C F0 2D 90 3C A2 33 AE 15 F7 7F 86 68 6F CB
 67 EB F7 C8 52 41 85 8A C5 06 3E 7E 72 A0 DE 53
 B2 30 97 B5 6F 71 A2 39 63 E8 EF D8 08 6E D2 F0
 73 F1 27 27 7C C6 B0 8E 9E 99 B0 BC D0 8C C8 51
 74 85 13 BE 5C 63 A8 9B 5C 2A 7E 48 4F E3 2B F1
 CA 6D 53 9D F0 53 3E 70 BA D7 09 1A ED 4D AB BF
 43 44 E1 2D C9 9D A3 54 E9 B9 2A FC 56 23 59 49
 5A 05 88 15 1D 04 B9 4A F2 4F 02 D2 3F 66 D9 59
 BF D5 6D 15 28 52 41 CD 62 46 F5 D6 70 D9 37 06
 23 34 94 63 EF 24 74 34 C0 66 F6 44 61 73 07 3E
 62 5D 1A 83 44 FB 7E 32 13 16 02 83 14 0A 99 1B
 20 7B D6 0D DD B6 80 05 F7 B8 7E 88 8E A7 AA 40
 98 B9 25 E1 6E 56 5C 22 34 12 52 31 14 AB DC 63
 B1 D3 1D 15 83 E0 6A 69 FD 29 B1 21 A2 58 84 8A
 D5 3F D3 D6 7D 79 58 61 5D 1C 88 DF FB 40 6A 08
 EA 14 BB 17 DC 59 78 8C 69 68 6D BE 95 A3 26 C5
 79 B8 C6 1D 55 DC FF 94 18 D3 99 D8 51 2E 45 4E
 5A 19 A6 B1 A3 46 0D 24 19 59 27 83 C1 A2 10 9E
 1F DF 00 C2 CA D2 73 C7 69 0D 84 E8 78 EE C2 6C
 28 1A 78 57 B7 B2 DD F7 ED F2 A5 55 D9 AF F0 CC
 32 C1 F1 C5 F5 57 CE 70 91 1C 15 39 B4 6A 16 70
 F9 AC 74 C9 B5 B1 5F D2 87 72 9C CD 28 0C 7A D1
 17 13 93 3F 00 6C 67 13 1E 82 A8 35 5B 58 1D A9
 F5 35 D3 AC B9 96 43 B5 65 30 74 F9 24 77 0A DF
 C5 D8 0F 17 20 86 35 32 B8 FF 7F EE AC 2F D5 A6
 49 CF 30 95 A3 C6 06 48 8A C9 4D 27 02 02 7A F1
 41 92 C2 88 82 31 45 2F 0D B1 0E 9A 19 77 1A 64
 B0 9C B8 5F 02 ED 4D C6 05 C9 58 C6 8D 4F 07 71
 B6 65 1E 0C 4B CF 95 E9 83 B7 1F B2 66 84 2B E8
 B6 F9 D0 FF E4 4B B9 FD D1 CD 1A 93 03 B9 09 4A
 7C 15 96 FB BE 38 72 1C 72 C9 1C ED BA EE E2 D3
 70 E6 4B 1B BA F9 55 35 D4 05 4D 23 A7 82 97 C9
 65 EF CA 75 43 7D 15 A8 B6 4F 67 D4 95 64 40 91
 3A 26 BA 66 F1 13 D5 00 3D 1D 8B 09 50 47 6C 85
 56 E1 15 E3 63 89 D0 A6 5F 14 81 A9 DA 42 38 6A
 46 7A 25 FC 8A BA F7 F6 5F BA DC 90 00 9D FD C3
 8F 8E 47 8C 4C FC 27 4C B9 0F 03 1D 68 77 20 98
 EA 6A 30 29 A3 21 2E CB 46 F3 FB C8 9D 44 1E 7D
 27 54 E5 86 11 DE 32 BD 99 E3 7F 6F A3 35 96 DA
 CC BA 0B 5D 80 DA 34 AF B9 32 24 52 E4 F8 1F 28
 48 9A DD AB 2E BC 89 14 1F 62 55 50 AE 86 EB DF
 9A 0C C7 B5 BF FC 53 41 C9 C7 81 C4 65 64 B4 81
 A7 8C BC 99 20 98 D1 0A 1B 18 F3 74 7A 46 3A 10
 30 77 1D AD 0D 80 1D 30 D7 9E F9 2C EA EA C2 95
 BA D0 E0 B2 68 85 E3 49 D7 50 06 6C 9A A9 23 74
 37 22 D5 DE 2A 45 27 62 DA C9 DF 03 AC AF 8C 73
 08 64 9D 8D 89 E4 7D 60 34 62 AC 15 97 A1 74 C3
 6C 30 8B F6 03 F3 D1 3B F6 EB D7 8E 1F 75 66 28
 7E 3B EA 4F 15 48 01 6D 21 07 9C 52 F1 63 19 7F
 EF 38 EA E9 2A 5E 47 29 2F 62 6E 40 D0 97 37 9A
 A5 D3 19 3D E8 F9 6D 7A A8 B3 10 69 46 1D BB 8A
 64 09 34 B9 48 02 1F FE BC 17 06 DD E7 E4 E7 17
 15 D1 33 26 96 2E 2A FE 96 CA 3B 13 86 0D D8 56
 8A AF 52 50 47 FF E5 C8 53 F7 9B 24 EF F1 2E A4
 3B 09 83 17 37 B9 1E 30 E0 F1 20 DC 6F DA A2 A6
 A3 04 99 B7 D5 11 BE A1 BF 7D CE 77 2B 7E 00 98
 CC 5A AF 96 53 52 E3 77 1A 53 38 49 2D 6C 1F 7E
 82 57 57 A9 0D 01 06 15 F5 0A 8A F4 60 8B 43 66
 0C FD 36 5E 8B 70 19 06 66 1D 97 FA 86 CC B9 04
 F0 60 39 2E 81 D0 BD D0 DB 89 2F F7 D7 8E D2 CC
 58 62 B9 A0 7B 5F A8 77 68 3D 11 78 39 79 B5 1F
 B2 35 2F DF C3 C8 E3 A3 53 96 CB 4A C4 37 8C 37
 06 4E 31 08 D6 B1 26 06 8F 6B 73 90 0B A3 CF 42
 E3 EE A6 C0 44 56 4B 46 8D 8D D3 B7 7A 82 6D 82
 3F FA 61 01 70 B9 DB 8E E5 B1 D6 D5 CB 02 B9 5F
 4C 24 A4 00 BF DE 96 80 19 BB 15 04 1B 10 C6 C0
 E0 02 46 EA 6D 84 DA BA 6E D8 B4 78 45 B0 46 4F
 88 9A 15 41 72 37 CF BB 34 B8 38 CF F5 EF 13 2F
 55 D6 27 84 BF 76 F9 08 8C 39 58 BB 79 C9 20 75
 B3 BB 6A 4B 6D EC 95 5B 14 25 1A BD A0 FE 84 E9
 52 FE 53 7D FF 4C E4 75 B9 4C 1C 7C 5A 17 E9 DF
 D3 E7 FF C4 5B 59 C0 C6 04 29 71 4F 04 9F EC 0F
 4E 63 2B 2A 5B F3 A5 62 A4 55 10 ED D2 8D 56 C7
 AA 26 2B 24 F8 9B 07 07 2D D7 C6 C6 0C CC 46 F1
 E5 B1 D3 B8 95 C9 BB 81 A4 F9 3D B0 CA 3A 82 B3
 40 B4 B3 B6 3A 71 45 C3 35 74 CF 38 E3 29 4B C8
 8C 7C 55 0A 21 12 4A CF AE CA E6 2E E0 2F 3F AD
 E6 4D 69 7D E3 BE 4C DE E6 D5 87 B9 93 13 8B AF
 B3 AD 4F 31 BB 59 07 24 30 D5 98 09 8C 05 8E F8
 1E DF 3E C0 11 B0 7D 05 1C 18 0C 75 C8 7D 36 66
 D0 E2 5E A9 BD AE C9 8B AF B6 4C 48 87 CC CE 96
 1A 97 F9 93 13 46 A4 A5 C1 50 A4 E1 E2 E2 B7 C8
 48 B6 E8 42 65 93 95 0C 5E B3 29 D1 4B FF DA DD
 0B 4B 66 DB BD 19 F9 79 E1 34 02 D4 17 B5 A4 81
 78 F1 CE B5 C9 FE 44 A5 CE 88 BA 5F E1 2A 50 58
 1D 0A 5F 34 8B C3 24 F2 29 02 54 81 FE 88 B4 A1
 42 16 A8 65 28 AE 7F 8F 48 BA 8F EF C9 78 D9 51
 1B 4C 20 30 97 26 BD 9B C9 0C 76 29 44 60 16 0E
 71 38 D1 13 59 F3 2A 98 80 35 9D B9 94 2E 42 4F
 F6 C2 5C 89 35 FC 88 0C BA 5F 88 54 EC 60 F3 E0
 1F 6B 98 40 3E 64 56 F6 5E 69 C4 A9 AD F1 62 71
 5A DE BE 2A EF 2D F8 90 11 9C B3 71 D7 74 16 09
 23 A9 1B 4C 68 12 2A D1 FC E0 8A 9D 5D B3 81 1F
 95 70 03 DD D7 2D BC 28 86 7F 8A 54 1E 95 F8 39
 FD DF C2 5B 4E 36 52 63 FD A2 B8 50 59 BA D4 E9
 55 63 20 C2 87 95 0D E6 3B 46 11 A3 1D E5 4F 47
 94 C9 39 41 78 D6 DD A9 77 DC 5B B5 CD D8 63 75
 C6 DB 01 E1 F4 77 32 FF E4 62 5C D4 70 B7 03 63
 81 E3 56 6C DA DD ED DF 7F 69 74 B8 1C F0 6A DA
 0D 36 99 6A E7 08 0F 27 53 49 BB 17 2A C1 77 96
 42 52 8A F8 69 B6 7D 35 61 A1 16 1C 81 99 FB 02
 E7 00 9F 9A 06 A9 6D E3 56 E0 2C 0B 9F 82 5B A7
 D5 0D FC 13 76 C3 4A 43 B2 06 46 21 61 14 F5 FE
 03 14 EF CD BA 9E C3 2E 29 A2 80 86 CD F7 5D C8
 B0 A1 0B A4 D7 F1 0D 48 A8 35 67 72 AF F6 E0 8C
 40 FA 34 1B 4E 81 16 EF AF D7 10 01 99 48 E7 C3
 AE BC 4B 6C 56 CA 6F 13 93 F6 9D C7 36 5C CE 12
 6C A6 80 F0 1F 20 0A 3D B6 ED 90 30 9F F5 42 14
 46 F4 1E B4 93 67 2E 44 8F EC FE 0D 68 92 AB 35
 2F 81 8A A1 B6 96 38 AC CF B3 97 7E 12 06 FA 65
 2B 26 92 3A CC EC CC 41 CC 2C 10 DD A3 2F 88 0A
 3F D4 CA B5 BB 9A FA CC C6 3C CA EE 8C B8 5B 1A
 53 AB C2 7A A9 EE 7B 34 29 0E 98 11 31 87 08 76
 D7 56 C1 8F 70 51 6A 88 B6 41 FE 85 5F C2 4F 41
 05 F4 B2 62 3C 56 96 EB B3 5E C8 A4 83 6A EF 78
 94 B3 DB D7 54 E5 80 BC BB C4 71 20 1E 8D 87 84
 FC B9 68 25 C0 18 38 BE 11 F3 2D 79 01 16 27 FA
 A3 7B FE D0 77 42 D4 4E 58 1F 44 A9 DC 58 E0 C0
 2E C5 76 3A D0 68 B2 6A 92 CC D4 5E E7 2E DA EC
 4F 95 F5 74 9C F6 62 5D 91 AB C3 44 2B 74 81 60
 C4 05 18 FF 3C AA D5 A2 D7 76 28 5C B9 45 B4 43
 87 AF 34 E4 B3 8F 01 EE 7F 61 B7 C4 EF 18 F8 7B
 EE 40 7A 86 1E EE D5 16 FD 5A 0F E3 4E 46 4D 21
 B4 C9 0B D0 9D 1D F0 F4 9F D8 23 16 00 A9 9A B2
 47 AE BF 69 03 EE E7 55 95 C7 D7 E8 0D 10 C0 CD
 FD D6 0D 87 B1 A4 45 23 FE 00 D9 BD FE 4E 3B 0B
 42 DC 93 4A 67 16 62 3F 18 7D A6 04 09 74 92 9D
 74 EE 8D 8E F2 AC E8 0C 75 E5 83 1B 17 8E 54 5F
 00 E2 32 0B 09 DC 87 B9 44 E5 2C 38 ED 5A 8E CC
 79 E7 4B FF D7 07 AB E9 10 29 17 50 5F 3D 71 00
 81 62 CF 6F B1 20 CF A1 88 FD 95 5A 7A 44 B6 FF
 E6 0E 73 DE D3 80 46 83 6E B8 C0 7B DE 8C 4C 9D
 0D 6F D0 F0 9B 1D 69 DC 30 39 A9 10 11 AD B5 70
 48 B1 08 E4 5C FB 79 D8 D7 1A CF 66 DE A1 A3 2F
 9A 74 B8 AA 0C 53 8F E4 77 E0 95 A4 DB 56 0C 7A
 35 ED 70 90 01 9A D7 96 14 F9 FB 11 5F 1C 83 41
 78 70 B0 59 60 12 D2 4E B8 19 D7 EF 7A 89 AE 24
 2A DB F3 80 32 71 59 F7 E1 FB 3E B4 1D C2 C0 37
 F6 77 77 85 A2 83 26 1B 7A 6A 3A D4 F5 FF C3 4F
 F0 1F 11 59 69 66 05 CF 60 C9 C7 A9 9A D3 06 4E
 FE BD D7 0D 76 52 11 7A B3 9C 6B DE 47 00 F7 8C
 AA 00 67 C1 47 0C ED D2 FA B6 DA E4 ED 21 65 C4
 3E DD 3C 26 CF 15 C0 21 73 7F 7A A8 9A 16 31 F1
 02 7A DB 18 35 73 6A 32 2E 92 88 8E 18 1A 8C 3C
 46 B3 15 C2 A3 67 45 C1 39 EF 69 BF 82 1F 8C AC
 55 B1 A4 45 66 18 E0 7A D9 7F 25 ED 64 31 79 26
 21 23 BC AB BA 36 A6 89 C8 21 53 84 64 AB 1E C9
 9A 8C E2 AB D1 46 6C BC 3B 4E E0 A2 E8 F1 2A 9F
 CF 62 BC B7 6C 42 85 CF 8A 55 14 85 F0 0E A1 9E
 E4 74 B0 EE FD 2B 5E EE CC B2 57 FB 6D C0 6A 66
 28 14 2E FF FE 21 04 F2 AB 0B 96 92 2C 57 DC 22
 86 72 6C D4 B2 50 1F 28 43 70 0C 1A 43 CD DD F3
 A8 18 12 C5 8D F9 D9 FD D7 C5 5D 4E 4F 29 05 7E
 6A CA 5A 74 E9 73 3C 59 1B 2F BD E2 AF 94 C8 EF
 43 E8 F5 50 A9 11 46 79 D6 D6 87 49 DD 8A FE BD
 3F 82 19 66 D6 70 DA 84 30 71 F2 9D 0B 24 70 89
 4D 3E DF CA E1 1E 8E EC 1B F5 A5 39 B0 AA 4F 38
 74 E0 EF BD D3 D6 28 3F 5F BD 34 09 96 9B B3 0B
 82 02 E2 81 02 A2 BF F4 3E C9 B3 87 7A 43 0C 17
 37 30 C8 9F 78 32 1D C9 8E 46 0E 30 0A 4B 43 EF
 EE 31 59 E9 B4 B2 E8 DB B5 C3 71 60 98 1E 8B EA
 4F 9E 03 15 58 1C EB 38 46 78 AD ED 80 EE 4E E3
 E8 DB FF 47 EB E6 31 A8 43 3A 0F CC 95 56 E9 73
 1B 23 B5 B7 8D 6C 08 46 48 0B 0F 7E 0C 1B C1 AE
 54 15 C8 E4 02 92 B4 F7 8D 1F CD 45 C7 E9 31 D3
 5B 58 BB 45 29 0E 00 80 D4 0C 15 1E 26 70 46 9A
 36 E2 75 26 8D 14 2B CB A0 E6 7F D5 08 3F AF 92
 07 8B 21 12 CD F6 B7 48 AF A8 FD CB C8 E9 F7 1B
 21 70 5B E6 BA 27 D2 99 4A 41 7B 07 9E E4 8D 49
 5E 85 28 55 38 18 77 D3 EB B2 49 AD 92 B5 E1 98
 21 0C C0 96 65 B7 C5 C3 9B FB A9 2C CB 33 BA 44
 C9 78 72 20 78 83 E9 AD 0F B3 FD 49 82 93 68 94
 12 74 26 16 BA 21 A5 33 7B 8F A3 AF 39 C5 86 D0
 49 99 36 71 5C FE 9A D1 47 8C 6E DD DF 04 98 79
 A4 48 35 91 59 75 9A 05 58 EB DB A6 99 FE 5E 07
 B7 2C 9C B6 33 51 07 93 56 63 0B 20 9E 7B D3 1E
 B6 A5 1A 66 90 3D 2B E7 52 E4 D9 83 1C C0 9B C6
 DD 7C 82 0E FB 5D 73 A1 C9 5C 9F 75 27 77 86 44
 68 C8 A1 1F C5 A1 C4 F8 36 08 EB C2 22 EC 79 1B
 C3 B2 68 09 D4 FD DE FE B0 ED FE 10 53 6F F6 D3
 21 ED 0B 72 75 FD 35 73 81 4B BA 63 CC 83 40 7B
 7E F2 A8 7A DA 79 E5 3E 0A 30 F1 93 C0 BC 4E 32
 BB 8D 9B E8 51 1B C6 6E 13 2A 13 80 BF 2E 54 59
 B8 3B 1E A0 C8 9F 85 B2 A4 10 AB 52 7D D6 98 30
 93 C5 84 C6 83 70 4C B9 43 AC 02 F8 DA 84 13 76
 89 00 09 DC F8 AE 6C 03 2C 8D 19 EF 7E EB CC 0B
 87 17 4C FB FC 22 AC 4D CE 77 7B B7 27 E1 82 D0
 CD EE C0 37 0A 13 D5 8B 59 58 A4 9A 9D E5 25 A4
 B9 6B 24 97 B6 7D CF 63 08 37 73 27 61 D8 6B 70
 A4 19 63 1E D9 DD 8E 70 73 15 57 B5 A8 61 F4 DD
 5D 8A B9 AB 06 D2 8C 16 65 B9 0D 1F CE 4A E1 57
 BA AB EB 6A CA CB 37 20 08 41 C6 6C 5E D4 FF 73
 ED 73 EC D8 81 48 E2 48 DF A0 EA 09 56 A0 85 0B
 C6 D7 DA 2E 1A AD 07 20 31 C1 6A ED 66 88 28 7F
 F7 69 69 65 98 59 75 7A 7B 0E EB F4 7E 15 AC 4B
 DA 8D AB 7E 8D 4D A1 52 89 CE D4 6B DC 9A B4 2F
 CF EC F7 C6 96 3C 41 66 E8 B4 F4 DE 6B AD 32 F7
 2F 3B 2C FA 6D E7 8B CA F1 EE 1A 11 DC 01 60 7A
 95 A2 C4 EE AD E5 88 2C 04 26 68 A0 0C 12 81 C5
 C8 22 FB 91 E1 DF B4 83 07 8A 06 75 D8 8A D5 C1
 79 8E FE 8D F4 D5 69 C3 EB EB 88 73 E2 D5 F9 5A
 F3 1C EB 9D 66 A7 33 21 38 D2 23 ED 9A BD DB 84
 54 04 95 9F 85 9B 57 76 C4 63 BF 10 F4 E9 7C 24
 91 D1 8A 1B 75 00 E3 E8 BC 07 EC 67 B1 FD 7D AC
 63 47 F6 52 D4 BD 4D 56 B9 EF 7E 75 D7 BC 4E 84
 35 2B DA 87 5C 11 2A 50 FA DF 21 B6 47 A2 61 5E
 22 AF 65 FB 72 5F 45 BD 5E DA 10 8D 65 C5 FB B1
 7C 6E A9 5C 3A BB 64 6B 04 71 13 60 E4 E9 14 44
 44 34 C6 FB FF EC 8D 69 F9 0A C5 FB E1 C9 7A 26
 F1 A8 A7 9E 62 D0 EB 93 39 28 CB 03 04 B4 38 4B
 25 67 F6 5D 60 B5 8C 0A 4F CA 0E 76 2E 2C B8 29
 C5 2B 2E 16 1E 5A C9 9C 60 B6 27 E3 6F E0 B4 88
 6B 29 2B 97 E3 A5 79 33 E4 1D 79 F3 7F D9 18 30
 90 1C 29 48 AF AF 65 CF 8C BF DC 28 EF 96 34 B6
 B7 62 C5 11 89 DE 7E 8D 06 10 4F CE DA C8 3D 05
 2B D2 C4 34 82 40 79 CC B3 A4 44 CF 5E FE E7 DE
 52 85 C9 32 4C 2E E5 8D 41 DB 2B A3 DA FD C6 8E
 17 66 19 0C 12 C0 FD 73 5A E6 9E BA 87 31 9D 67
 E7 67 9B 1A 29 EB C1 8B 52 F4 2B 32 52 AE B6 40
 7C AB EF DB E5 D4 ED C3 39 CB A5 04 6D DD F9 CB
 F1 C5 ED 10 0C 52 08 CF 04 AC 28 E4 E1 AD D1 6D
 0A 67 FD 09 75 48 A0 D4 7A 43 4C 0C 63 A5 CE 70
 A2 31 78 BE 5D 1F A2 AD 9D D8 FE 2D B5 04 2E 90
 AA 1C 16 1A DE 94 B5 27 B2 7B 81 A1 D9 EE 08 2E
 B3 24 D7 E9 FF E0 8C F5 F3 50 6A 13 1D 4E 8B 8B
 49 CB DA 81 28 06 A4 94 A7 5C 5B 4D 4A C2 D0 90
 C2 24 EB 41 26 F4 7F B1 F3 DF 64 91 41 F5 F5 DB
 48 F2 7C 07 F8 60 7E 10 D3 BA 50 CA 1C 2A C1 12
 4F BE B8 3F A6 41 18 37 09 57 9E 24 ED 18 17 EE
 73 E3 DA B3 CB 84 53 0B 5F 84 BC 3F 8C A7 C5 90
 04 FE 5B D2 58 1D E2 74 77 D6 74 75 49 8E 70 3E
 C1 5C 64 3E 95 C7 70 66 E0 42 0F 47 F9 3F 30 06
 56 EC 9D 80 46 C3 EA 7E 57 41 1A 0B 18 C4 84 8D
 3D 34 72 EB 4E C4 5C 68 18 A1 DD 8B DF E5 9A 41
 70 72 8F B4 F9 68 9F 6E 45 49 F1 A8 B4 C2 E3 74
 35 17 4C AF 62 C8 A7 8F 9E DF E6 21 A3 35 7C 9E
 F4 58 D6 CE 72 7D FD 5E 8B 13 2A 4E 49 A6 0F FA
 CB 3E AC F8 75 BE 18 77 12 2E E2 9A AE B8 6F B2
 8F A4 C2 90 0B 7E AB 79 E0 7D 28 BA A0 8E 55 97
 89 75 E0 B1 9A CD 9D 02 03 38 0D 6E AD AE 33 82
 77 63 6A 53 AC 7E A6 14 F6 B6 E6 7F F2 7D CE 72
 20 1C 55 C9 19 B9 68 E8 9C C1 7C 39 C0 F9 03 77
 02 BA AC CA 3A 1B AB EF FF FD 1B 1A B7 91 06 95
 02 3A 4E 2E C0 D2 BE BE AF 9F 7E E6 D9 8D 44 0E
 E9 B7 C3 4E 23 B7 22 EC ED DA E4 F2 CD FE 63 7F
 0B 59 DD 9E E9 74 86 BB 18 62 91 81 CB 1A CD 4B
 F7 86 94 AB BB B0 13 A3 9A A8 81 93 B6 A7 0C 3C
 E0 1F B9 BC 1E 2A 09 5C 9E DD 27 87 A3 08 E3 65
 2D FF 4D 0E 48 3B 7F C3 0C 21 CB 49 A6 1A 83 F4
 84 2F 75 19 29 21 F2 B9 11 B8 96 B5 57 51 7A 53
 A2 A1 28 15 B9 B0 89 4E AA 6D C7 F2 3E 0B 8B C5
 E2 34 FD 77 03 5E 29 8A D9 C9 19 39 E4 FD EB 60
 9E 36 D8 6A F4 09 0B 72 88 A3 09 45 5D 94 51 5A
 0C 6C 09 F9 41 72 32 33 F0 97 63 0F 7C E4 F5 5A
 11 02 1C B8 80 3B AB 79 1C 68 B8 CA 66 12 FF A3
 77 11 C2 66 EC A1 0C 86 58 78 DD 67 FA F8 42 6B
 A9 68 7F 97 D3 4D 81 5D F3 6C 8E 6D 63 BF AE 4F
 67 6A D7 88 17 5D 8E D9 B2 0F 4E 7B A8 66 7D E6
 EA F8 44 0C 37 84 9C 62 24 7A 29 45 49 7F A9 AD
 C4 96 91 74 D9 5D 24 E6 08 7C F2 EF 8D A5 04 8B
 2C 36 C9 C9 4A 0F 4D ED EA D3 F7 FA CA 6E 53 D5
 CA 4E 08 FB 73 22 30 4C 57 DC 6A 67 01 1E 33 71
 D3 6C B5 DD F5 9D 15 DE 84 02 E6 B0 4F 4B D5 C4
 A3 4D AB B6 26 4A 3C 1D 56 8B 9A B7 22 28 1D 59
 EB 5E 63 B6 43 7A 63 F4 20 70 EC BF 6C 9A 90 33
 6B 2B BA BF 54 D7 3B 80 6B 11 22 56 E0 27 92 65
 B2 A7 72 1E D2 25 5C 20 6B 4C A6 35 B2 EE AA E6
 DC 45 2E 6B FB BF DE A2 15 48 1D F7 35 C8 CF 7C
 0D 46 12 A3 B9 2C 01 60 CD BD 23 17 D4 26 EC 1D
 53 3C 3C E9 92 92 B9 6C 5D FF 8B 2E 31 D3 5A 83
 EC 03 D0 E1 27 F3 28 BC 68 AB 9A A1 05 39 0A C1
 03 E8 02 E0 7A 6D 3B 42 87 6B E7 3F F2 C0 0D 02
 D4 71 6F 8B C5 FF EF 05 64 F6 FE A3 54 55 5F AD
 DB 2B F7 2F 31 FB F1 72 DA 3C 41 4C 86 F7 2F 21
 EE 85 E9 F0 33 7B 1D 6E D4 29 00 2A 95 D4 1A 92
 72 E6 FC 3C A4 A0 C8 31 82 CF B7 E5 B0 52 88 8B
 3F B9 85 01 13 79 42 3C A4 81 3E 1C 85 DF BA D9
 87 68 D3 61 08 EF AB 26 D5 87 97 F1 98 BC 90 29
 D7 18 70 E2 D2 E9 0C D2 4F CA 0E 0B 54 95 11 4B
 F2 3A 14 B4 93 66 B0 90 D6 09 60 1E 6B 51 E6 61
 8E ED 29 22 9E 95 23 5C FA 1B 25 4C 4B B0 B2 31
 7B 5D 4A 19 28 C0 67 6B 3D 2B 2E 66 EE 16 37 A0
 D7 B3 AC 52 46 A9 CE 87 71 43 73 F0 E5 BD B7 C9
 AD 5D F0 2C 73 22 14 B5 AC 72 72 04 E7 09 8A 63
 7E 87 AD C4 42 C4 89 D8 F1 49 30 D6 41 C8 70 9A
 C7 5D 11 C0 53 7E 80 E6 3C FB 6A EF 02 68 ED AF
 60 96 09 F6 81 03 3B 91 1A E3 B8 AB FB 41 F5 FF
 CE 69 9D D1 56 DE 11 4B 86 69 FE E5 33 14 00 8A
 35 88 4E 5E 59 29 C5 D1 F0 25 00 81 FF 5F B0 A0
 2D 9C AF 02 6C A5 92 4F EB 75 51 1B 64 7C CE 6D
 A6 64 88 A7 E9 1B F5 71 EA 7A 4F 3E CD F4 CC CC
 4C FA 7E BA C9 1D 9E DC 45 01 17 0C 7E 07 CA 0D
 DB 77 64 9A B6 B0 37 1B 62 C6 1F 45 B9 03 4B E8
 AA 51 9C C6 DC 0C 47 67 03 7C CB 93 00 6C 4C 35
* End 2073120648 2608428646