* LTspice Encrypted File
* 
* This encrypted file has been supplied by a 3rd
* party vendor that does not wish to publicize
* the technology used to implement this library.
* 
* Permission is granted to use this file for
* simulations but not to reverse engineer its
* contents.
* 
* Begin:
 E1 4E 81 75 E1 79 7D 06 5A A2 6B 40 BC 2B B7 E7
 FD 2B A1 9B 19 91 43 22 9D C8 E3 AF D8 D0 16 4B
 BC 59 F8 0D 3E 0F AA DA EB AA FA 21 32 82 14 EC
 89 D2 EF 93 55 10 36 63 3C 46 62 51 AF BE 42 08
 5D ED CC 64 89 41 48 D9 D3 5C FC 8F 99 68 E5 F2
 7C 52 37 00 65 ED D7 A0 50 2A AD 03 98 1F 05 72
 CB 00 B5 52 70 A5 10 3D 1E 61 4E 55 AC 34 B4 81
 20 E3 15 AD 8D 49 24 0F 37 B6 EC 48 6B C1 1E 07
 1C FF DE 57 D0 A0 7E 39 C6 F8 52 8F BD 3B 11 7E
 86 73 E9 86 2F 82 AE AC B4 BD 36 F5 C5 01 9B AD
 DD 5A 40 8C A1 0A E8 DA 20 7D 65 DF B8 E8 69 4D
 86 70 AA 62 86 3F 1F 60 67 19 04 5D 91 9A DC 41
 8B 1F 7A DA FD 5F 27 D6 48 77 27 1D 23 2D A1 30
 2F DA 23 7C 24 72 4A 9B E2 0F 01 14 FF 5C E6 16
 52 CC 67 75 5A 93 1B 2A 75 48 02 C5 F7 4F 19 6B
 3E BB D3 2C B7 7D 5A C9 30 10 45 1D 2D 05 78 06
 F8 ED 44 03 BE 06 A4 8D 35 86 49 AA 82 1F 8C 43
 BA 84 1C FD 7A 7E 43 F9 88 84 A2 A5 7F 7A C8 B0
 94 E7 8F 21 52 1F 80 09 11 E0 BE 60 3A 37 FF 72
 82 EB 9A 9A 68 09 5B 28 03 3B 98 EC 9C B6 09 21
 36 AB AB FB A8 D0 01 3A 9D D5 87 1B F1 4F FF C7
 3C ED ED 9F 2C A5 C6 8F 4E 41 99 18 91 F7 2E AB
 7A E4 3A 80 95 8C 33 00 B7 20 1E 8A 4C 0F D6 9E
 17 CD DC 1B AD 31 1A EF A6 C9 F5 04 10 0A 61 7B
 C4 86 AA AE 60 6A D8 4E E1 74 00 E1 16 A7 B6 D9
 05 B9 64 2A 17 37 28 A9 E1 89 D6 52 36 73 EF 84
 6F E4 E6 7B 89 42 F3 BC CE E1 39 31 90 B3 86 41
 10 0F A9 58 82 8D 70 77 68 24 A9 03 78 F4 62 AF
 BB EC AB CD 47 FA F0 ED 9B B1 24 67 FD 91 5A C9
 9B F7 3F 6B 07 E1 10 FC 5C D9 BA 02 D6 78 44 F6
 CC B4 73 EA E7 9A 9E 5D B9 5C 0F D9 2E 74 8F AF
 B1 78 9F D6 2C 76 E0 7C EA 98 3E 3C A8 62 3F B9
 51 11 4D 99 5D 57 0C 9D 5A 60 40 6D B8 BC 1D FE
 4B 5D D2 34 23 A9 05 73 37 89 D8 2B 84 B3 5B 68
 84 DA 2D DB 40 AE 95 F6 77 9B 93 A1 09 42 00 FB
 09 76 B9 37 50 DB 1E A4 62 EC 9E C7 B1 1A 17 ED
 ED BA 98 E6 4C F6 A6 B8 A8 BE CE B3 B0 E0 F5 06
 4D 32 84 A5 5E C2 74 4B DE 00 F6 FB 95 A7 7A 6D
 08 17 40 7A CD 5A C5 E8 D5 29 15 D9 DA 3C 7E 84
 39 79 0B C5 F5 3E 57 E0 1D C2 56 39 24 08 13 8A
 9C 73 DC 87 2D B1 B9 9A 92 A7 FD F2 B6 E4 3B 30
 C8 BC 2E A3 4F EE D0 3D B5 EE BF CB AA B7 46 55
 0E 5D D3 96 3A 8D CF FF DE FD 0C 9D 27 DE CD 62
 93 46 6C 98 03 34 4C 1A 3E 73 E3 E5 77 0E 1B 05
 A0 0C 8E 6B FA A3 83 40 6E 6E B0 17 69 E5 D8 20
 3C 07 B1 0B 61 DE 2C 8C DC 79 C3 12 4F 96 4A E2
 4F 2B 92 D1 52 8F 8F CF C6 2D FC E9 BB 1E 90 84
 AA 9A BD 0C BB 1B 0D 9B A9 D4 87 F0 92 10 41 66
 E7 6B 04 B5 4B D7 01 7C 3B E6 4E D5 CF 21 41 75
 3E 19 49 5D B5 F4 9A 19 8C BC CA D8 00 AB 0B B9
 D4 C6 FC AA 58 A9 5D 02 AD 43 F8 AF 98 4E 39 5D
 2F C5 F7 06 2B B7 82 E1 28 21 D9 63 1B 91 D4 10
 A3 3F 93 87 4C BE 3F 50 7A CF 20 8F DA 76 35 61
 CB C2 A6 99 D4 C3 5E D8 18 97 19 FF 03 80 98 48
 54 3C DC 96 91 E8 2E 09 15 B6 8A D0 AA 86 B2 F9
 3D F6 5C 4D B5 05 4B 93 F2 E5 FC F1 6F B0 FD D0
 65 F9 72 34 E9 2D 81 32 A2 0E 3F A1 21 E1 BD 07
 FA 8B 7C 54 58 CD 38 9A AC B3 4C 1D 34 5E B7 8E
 BD DF 39 AD 63 7D 99 80 D1 B1 C7 C6 8C 00 B1 86
 2F 10 BD 18 2F 28 98 F0 22 28 90 FB 8F A4 3D B0
 DB 1B 72 6C 9D 3E D4 CF 4D 92 29 57 A0 94 16 DE
 12 D4 4C 52 C3 F7 C2 40 45 47 29 B3 B9 EA 11 41
 C6 D4 4F 67 7C 08 88 2F 34 E0 42 8F 13 65 7E DC
 59 D4 C2 BB 55 9B 7C 0A 49 B9 62 E3 3F 37 9C 3F
 E7 49 5F C8 7B A4 B3 D8 5D 5A 17 63 F7 F9 D5 8D
 B3 87 24 EB FC 6B FA 16 11 D2 47 B1 D5 E9 FA 7C
 3D 0B 86 AC 9B 8D 7A EE A4 62 72 E9 30 94 2A FF
 EB 8C 03 A1 AE F0 18 08 C7 2E 10 3A F9 8E A5 54
 67 24 7F EF DB F1 71 4D 79 64 C7 F1 59 E3 6F 28
 5F CF 59 FE E1 5E CA C0 A8 C1 45 FB D2 D5 2C F4
 E2 BC B8 5F DB 90 75 77 41 AC 00 D9 5A FA 70 95
 8B 2F CD B4 DD 80 BF B5 36 D8 E7 78 3E A8 0D 97
 8F BB 47 8B 02 44 3D 7C 5B 0F 9B F7 EA CE 1A B4
 60 99 CE 9E AB B1 54 0A 47 E0 3C A5 A7 8E 1F 99
 CB 97 C0 70 0A 94 2B 34 7D 73 C2 16 E6 98 F7 5E
 8E CC 81 B9 F4 21 A1 42 47 26 5C 9D 2C 65 33 85
 3A E1 7D B9 C1 0D 92 68 C9 B7 77 70 DA 5E 36 BA
 3C A4 C2 50 29 E0 94 4A 08 1C 0E 4A 55 7A DF D8
 91 9F A4 0D 2D 50 FF 14 94 42 8C 56 25 08 B9 FF
 4D CB 94 74 CE D4 C2 84 AD E6 4D B5 28 B9 BB 4E
 AE F1 89 ED F8 49 F1 84 96 AF 13 88 7C 43 1A 06
 94 AE 30 F9 90 9C 6B 64 9D DF EC 2C 5F 4B 18 76
 7F 80 5F FA B1 50 F2 5B 8C 27 4F 34 52 A7 40 17
 58 F8 AD 5E C4 B1 68 5E B8 14 3B 76 E1 CC 02 FC
 B5 53 E3 5F 2C 47 CA 09 0F 7F 4C 4D 7E B7 63 81
 6C AA 71 9C 4E 1F E0 C1 60 7F 42 47 2F 30 63 B7
 03 A9 8C EF 6E AA AE 09 AA 96 B0 26 EC 86 46 31
 CE 2E 7E 30 CF 5A 80 23 25 A5 11 F3 80 54 4F 53
 79 F8 9F 0F 04 69 8E D2 07 EC 7C D7 10 CC 54 65
 B9 C4 C3 CE CA 5D 7C 3A E4 03 A4 AA 58 D0 06 F9
 EE 41 1E 9D D0 3A E8 B0 42 04 08 26 14 9B 42 6C
 AE C0 3D 64 22 81 06 D6 DD AF CB FB 1F A9 76 21
 E6 B0 06 1A 0A D7 A4 F3 70 CB 19 A6 73 D5 FE 31
 21 79 C9 C4 1B C7 D5 A2 94 55 6A C5 66 2F 52 1C
 01 B7 62 52 16 94 69 CE 79 BB 60 61 BB 36 CB 6B
 20 9B 1D 5C CE BF 96 6E 96 F2 CA 30 4A 2B CD C8
 02 8E 0A 86 13 88 7A 15 9B BD 06 60 BD 3C 58 8E
 40 75 C8 28 B0 BE 5E 60 14 9A 9E 3E 6B 1A 38 88
 E3 AB D6 5A 64 F4 45 2F DF C5 FB D7 AA BB 51 64
 0C 9F 4A 58 AE D4 F9 12 BC 8E EC CD B3 98 95 70
 50 E7 43 CE 0D B8 EC 17 7E FD C5 46 87 37 8E C2
 18 13 8A 58 EE A9 0E 3F F0 45 03 25 CC D8 75 2D
 F2 FB 51 EA B2 2A 2C 6E CB 55 C5 87 D0 DF 15 D9
 00 C2 92 77 D5 56 8D 5B A3 70 8C 87 EC A1 13 E6
 63 4A 48 B9 48 BD 43 9F FA BC 00 25 AC F5 6F 80
 A5 F8 6C 9B 92 EF FC 12 CB 4A 5F 0C B9 07 01 1F
 31 28 D8 15 76 FF 91 C5 44 00 6F 9A 00 91 43 73
 0A F8 42 5A 48 3F 16 D4 0B E7 7C D7 54 B5 12 3F
 30 B4 11 50 1A FF 8F 4B 9D 1F 5E AF C7 D5 0B 0C
 E5 54 35 2F 5D 93 CE 30 40 BA 47 86 4C A4 23 39
 94 F8 34 76 B9 0A DB 77 4C 04 75 12 00 E5 A9 1B
 8E CF 85 6A A7 CD C9 87 33 C1 1C BE 77 AA 75 48
 C1 AA 51 51 D2 F8 48 A3 69 0D 5E 29 A8 18 CF AF
 D7 AA 48 86 68 80 69 08 69 4D 14 8F D7 7F 59 07
 E8 C7 C5 DE B5 40 5B C8 7F 9D F8 50 B6 7D D9 3E
 FB 8A 56 5B 6F 8B 5F 9B 59 65 DB 98 06 F3 A8 1A
 06 20 3B D3 F8 9E 18 02 E0 81 32 FC 82 6A 31 18
 1D 05 DF E5 A0 EA 30 59 0A 47 84 F5 32 57 CC FC
 09 03 56 41 44 F6 12 D1 F2 CE 3A C8 F8 13 26 5D
 92 8D 2E 80 CC 38 15 CB 82 56 3B CF F5 F0 F2 B5
 5A D4 D4 39 38 CE 7A 62 28 D6 76 37 A9 AA 45 3E
 47 68 83 95 C7 A1 8B 5D B5 33 28 BB 73 B8 5D 3F
 36 69 C5 D4 26 DD 49 7F 70 A4 22 2D B9 88 3C D5
 FD F3 0F 89 53 87 D5 CE 9E 6D 77 D9 19 40 DD D5
 15 3B A3 99 B7 B0 0D 70 79 BE 68 D4 DD B1 20 68
 F7 E1 E8 45 96 35 37 C9 80 70 CB F4 E4 75 DF 8B
 AB 94 ED E1 E2 26 9A 7F EB 89 8A 95 64 62 33 57
 7E 23 FB 75 3F F3 B5 00 2F 38 41 0D AA FE CF B0
 91 92 F3 29 1E 94 54 A8 7D CA 22 77 6E D5 4A 66
 D5 00 F5 C4 DF 87 CE D4 8B B2 73 52 D0 80 C3 56
 1D 5B 7C 66 E6 33 F6 E6 6D 30 75 63 52 F6 41 CD
 03 40 FD 65 5E 4A 5A 28 02 16 6B 9B C6 08 03 F5
 D1 41 DD 50 1C 79 AC F6 CA A8 8E 46 07 0E 48 35
 05 B3 AC 02 B4 80 BF 38 40 E9 D0 C1 94 33 39 38
 3D AB 72 CE 5C B0 66 4E 7D EF 67 C7 28 EE D1 19
 00 AA E0 4B EF 9A D8 DB 18 DE 96 63 90 D4 00 4F
 EF 2C 50 0A 4E 2B 07 D5 B1 40 B9 27 83 E6 6D A0
 3D EF AC 96 B7 8B AB 1B 55 8F 3E 44 FE CE EB 04
 4D BF 6E F5 34 99 A4 13 5E E1 75 2E CB AE 3E 0D
 B6 54 F9 0C 4E E5 D5 3A 38 46 CC C5 2B 6A 8D 69
 BC 0E C3 4E E2 D9 2D DB B4 C9 4E 9A 61 8E 80 B2
 95 D7 26 5B DF E0 37 10 92 47 CE FA C0 45 C3 A8
 02 66 F1 0D 91 A8 E0 2F 36 88 9D 92 D8 FC 51 8A
 74 30 B2 17 C9 B9 0B 21 88 F2 96 29 99 BD DC F0
 0E B3 66 44 9C AF 31 13 D5 10 0D 33 26 C8 6A 84
 68 08 D3 06 A8 C3 F3 AC 86 CC 5C 44 D2 53 6F 7B
 E0 56 61 EC DB 81 05 26 86 10 2F 26 62 F3 E4 34
 E5 E8 A7 78 98 71 DD E6 02 39 EA C4 42 76 96 41
 F9 BD D2 81 40 EC F9 EB A0 17 06 B1 38 11 B2 65
 C6 BE 9C BB 52 0F B6 04 3F 69 FA 44 1B 41 1D DE
 DF D0 E4 B1 FE E5 43 48 49 B8 68 8E A6 04 82 D2
 83 F7 72 ED B5 19 C2 F0 DF B1 F8 71 F9 00 63 21
 31 04 D6 13 02 22 2A 88 99 FD 61 A4 FC F7 27 CF
 B3 40 C2 70 3A A5 C8 2C 57 A9 75 C1 EB E9 B6 0F
 76 6E 6C 6A FD 0C 94 F3 38 73 BF 1A 2F 20 4F 20
 69 6C E4 91 75 7C A2 4C F1 DC AD 4E A3 D1 A0 2D
 D3 42 CA 59 26 7D 31 E1 F7 B2 E3 26 6F 6C 6E 01
 12 EB 0B 9A 9A 5F FA 1A 89 F8 51 E4 42 C0 FB A5
 F8 DB AD B1 64 06 EA 96 5F B8 BD AE B7 8B 23 32
 CE 78 A4 75 57 5A 8C 79 80 C8 06 20 E1 9D 77 6E
 93 E6 9E 57 92 C1 E6 57 98 2C B2 BA FE 4A 43 D7
 CF 60 8E 61 94 B1 B3 3D 05 C9 6C 2A C2 26 39 A8
 5D 15 F2 4C F3 76 E5 56 8C 0A 41 42 54 5A D8 0B
 68 81 5C E9 18 01 82 70 D7 9B CA 87 C1 25 AA 7D
 39 F8 91 A8 3C A0 B7 E3 C2 0A D3 41 31 D8 A5 D9
 53 A7 2C 4E 67 3E 01 21 29 83 73 B4 1F 5F 41 CE
 EF CC 12 2B 67 D6 F4 88 F1 C4 FE CA C9 8F E4 D6
 54 35 D4 B2 59 E8 67 24 39 6A 39 7B 97 19 1A D9
 D2 3C 26 F1 75 87 7E 2B F0 DA 0B F5 83 D6 39 7C
 C4 7D 86 04 D4 07 8A DF ED A7 65 45 E6 77 17 EC
 DF E7 D2 79 92 54 F6 24 A0 AB FC F0 92 F1 36 93
 18 96 6E E0 84 76 76 3D 46 58 5D 14 CA 7E 29 64
 8F A1 9E 25 2F 28 E5 97 B0 5C 76 EF C6 7E 2C 5A
 49 E7 FC B7 4D BA FD 80 93 66 91 68 23 60 3C E4
 2E 67 8E 9F AA C8 9B 46 40 C3 AD 15 27 A9 D5 B1
 D1 B9 F2 ED D5 03 F5 9F 32 2F 6D BE 21 FD 5F C0
 17 9F 72 5B 5D 7B 83 41 3C D4 C8 D8 F2 58 42 10
 6D C3 85 AC E2 BB FF E7 29 A2 8C B8 64 44 F7 C9
 EB 95 D6 5F 55 90 69 EB DE 24 A2 9C 09 4D 8A F1
 68 27 D2 C1 88 21 BC 0E A6 1E 97 BC 1C 9D 26 8B
 34 13 A7 A5 48 71 8F AD 5C DD 1C 7D 97 94 89 20
 DF 96 2D B5 61 01 12 8D 49 F5 35 58 4C B3 67 20
 C7 FA B1 AB C4 88 84 EB 46 FE 06 C8 97 32 DF 89
 B8 E4 A4 05 F0 53 86 4A 01 BB 9E EA 87 40 59 C7
 00 4C CC A4 0D 47 77 F5 48 2E 53 DE 39 5D 7E C8
 E1 A1 A6 31 15 AC 8F 25 10 B3 ED 58 DE 19 F2 5D
 FE 4D 23 9A 02 BA 8E 6D 4C 0F 62 94 DA 98 CD 4C
 04 F4 7D 8F DE F9 41 F9 46 87 F9 BA CD 52 62 0D
 68 83 9C D5 A8 DC EA 4D DD 71 D3 93 D0 7F A2 47
 4E CA 8D 36 69 16 1C D9 EC 0C 83 F5 91 FD D9 80
 D4 F8 11 B7 27 8E CF 39 A1 94 54 80 E4 DB 8F 14
 52 66 D4 53 49 AE 44 57 A7 F5 08 38 84 1F F8 10
 C2 83 BB 42 45 32 13 4F 6F 3C 4A 73 86 8A CA 0D
 AC 2E 2F 1E E8 6A 90 6C AB 2A 41 1E CA 38 F8 FA
 EE E2 5C 8A FF A8 85 CB EF 79 94 DD 8E E7 63 C7
 4F 6F C1 5F F7 87 80 4F 2B 2D 4D 7C F1 15 34 A9
 E9 B0 1F 22 81 E2 87 AC 8C 3D 12 16 90 A3 B1 0A
 47 82 4D 5E C9 AD AA A6 FA CD 62 60 E3 BA 67 75
 83 94 43 08 BC 3E 39 A2 5E 89 1C 94 E3 4D BF A9
 78 5E 4B 2C 03 60 E2 2A 88 38 BB 58 9B 1C BD F6
 4F F6 C1 88 5A 2D DE 81 72 C2 61 C8 AE 6A A8 43
 EB 05 94 B3 DE C2 10 76 65 CF 41 07 1D C0 F1 FA
 4E E5 CD F6 B7 9B 80 5E E8 C3 AF 3A C9 B0 28 CA
 2C F2 44 15 0E 7E 63 74 63 6B 8D 65 CB 73 86 85
 28 1C CE 69 57 D1 0D 7B E0 94 29 CF 1E 02 AF 51
 DC 62 8C 64 94 45 4A 37 84 1C D6 74 22 E2 3D 09
 3A B9 FD 29 44 80 8B 15 94 D3 C4 5B 8A 5F 15 F9
 A7 6E 5C 4F DD 39 64 4F AD 9B 9E D6 E9 F7 4D 2B
 FC 1F C7 29 BA F3 15 B1 59 79 11 9A C1 6A 02 75
 AF 75 5E C2 9A FF 67 C4 0B 47 6F 65 29 84 08 32
 FF B7 F5 4C 02 FB D2 52 9A 63 C3 2C 20 B0 89 76
 85 75 3B 69 12 26 29 75 30 A8 DF E4 5D F6 EA 81
 E4 71 F0 58 59 C8 38 B0 1E 71 84 BC 94 E1 76 5A
 AC 6A 51 24 7C 08 1F 74 B8 DD E7 B6 7C 5B 9B 6F
 D8 29 34 2F 96 F2 28 87 F9 B2 E8 96 C9 C7 8A 20
 9D 3A 18 4D 31 90 2A 3A D5 95 C0 8C AE 13 24 C2
 A0 64 68 7A 2A 3C A4 FE 41 10 65 91 9B 94 8C 9E
 4C 95 1B 36 06 13 56 8E 27 F2 98 B1 3C F9 F6 77
 DE 0F 96 F6 45 9D F6 1A 00 39 25 35 4E 89 F2 87
 29 FE C1 61 98 01 D4 C6 C6 FE 20 FD CC B9 49 64
 57 8C 0D 0F E8 BF 04 A3 D0 24 97 DB E5 00 0F 17
 FA 30 DF AA 6E F0 A0 88 07 F1 CF 48 4C 78 EE 7F
 1C F6 B0 92 62 10 D0 9C 46 D3 4F A6 94 85 C2 92
 0D 60 08 F5 FE 40 2E 44 17 40 DD 6B 07 03 83 AE
 4B C2 4A 33 CD A1 68 1C DF FA 9B 73 67 FA 4B B4
 DB 28 3E 40 45 7B DD 04 BE 47 71 DB 91 28 49 47
 08 63 02 1D E1 CF B1 AD 29 C8 B6 77 EA 13 5A 76
 21 5A BA 74 57 2F 81 29 67 A2 4B AF 6A 43 CE 9A
 07 78 00 48 E0 CF 7F DB B3 C5 5F 05 30 85 7C 66
 FC 4C 54 51 B8 3A BA D8 12 B7 8A 39 9A B0 FB BD
 B4 3F A3 7E D2 1F 15 94 41 57 69 9C 59 57 2C B6
 48 51 3A 27 5F A8 0E 5A F5 E2 F1 1F 75 38 2A B1
 2C E4 DC 2C 5A 22 4B 96 3F DD 66 92 71 F4 B6 68
 4A AC EA 5D 9D 25 4B 0B 19 4F 14 4B E1 6B C4 A3
 33 19 37 71 19 BE 6D C6 9B C1 A1 A4 5C 1E 56 82
 08 42 64 B8 52 00 67 B8 8E 17 88 D3 C8 D5 CC 7C
 26 2B FC CF BB 5E D6 E3 51 8C 3D EA AD A3 62 42
 58 2F 9A 48 6D 3B 53 C1 11 C8 46 A7 1E FC 55 28
 DE BE C6 7E 55 FF B5 05 2C 4B EF E4 6D FF A6 81
 98 99 BF E6 22 9E 16 2A 8E 6B 61 E1 F8 15 7B 85
 8E D2 7B 6D E5 FF 06 94 56 D6 0F 75 45 C3 AD 6C
 90 3B 86 D5 48 C6 7D 95 E7 E5 BC 98 F4 BD 4E 92
 3F 70 CE C9 26 7D DF BA 24 4E D5 A2 69 EB 4C 06
 24 0D 40 48 A2 2F CA D3 38 E7 AF D2 7E FC 9E AC
 0E 2C A0 08 7A D1 E6 CC B9 21 5A 2B E8 0B EA F2
 2B AF B3 2F 9D 52 E3 F9 E7 7F 2F 36 C7 36 BE EE
 B6 1F 87 91 BA 61 BF 7A 53 2E 0E F2 14 2F 3E C7
 3C 38 CC C0 2E A1 70 51 F1 CF 83 41 A0 F8 E2 8E
 AA C6 86 22 B9 5E 52 43 F2 55 7D D8 E6 14 44 5F
 BD A8 01 EC 6E 4C C9 66 E9 84 CF 27 3A A8 F4 95
 3A A4 3E 20 AB 26 D6 8D 53 EB B7 BF 5C 5E A7 0F
 C2 B4 93 60 B0 2E F9 54 BD 33 2A FA 22 F7 2F F7
 10 90 9D E0 06 EF BE C7 94 8D F5 84 04 D8 2D DD
 E5 E6 69 28 7E B7 43 8A 0E F8 CD 00 6A F3 AE FE
 F5 AF 49 54 EF C4 38 91 9B 99 E2 27 0F 4E 7D 8D
 9B 20 6B CA 7C 95 2F 77 9E A4 E1 9C 17 D1 6D E6
 AB 2D 97 5B 60 50 8B CA B2 1B 83 D2 C7 6F 57 91
 F6 39 C4 BB A8 5F 0E 95 7D 0F 79 9E 4D A3 FB 68
 C7 E5 5B 42 2E 88 F4 A9 8C EB 4E 7B F4 2A 96 88
 18 AA AD 3B E0 F0 69 84 6A C7 2D CE 92 97 10 68
 B4 AF C6 E3 95 4F 19 5C 1D 3D BE 6E 8C 65 ED 7D
 92 33 F0 DF 0B 81 3F DB A5 D1 05 20 B6 29 6D 91
 AE 0E D8 09 7E 94 C5 66 95 E8 51 1B 88 84 E2 80
 99 6C A9 01 6C 96 43 27 D2 6B C0 E4 E3 68 EA 16
 50 46 A0 06 C1 D3 39 35 13 05 BE 18 5C 35 A4 09
 B8 87 E4 13 94 89 D4 46 32 D0 CC 99 9A 69 F3 FB
 65 43 AD 72 56 8C 94 02 B6 9E B8 5B D8 DE F8 50
 C7 DC 59 25 DF 29 46 37 3B 3C 63 6A 5E AA 30 EC
 BF 1B 76 CE 1C F2 24 D9 78 CA 83 A7 A5 AD 6E 1D
 75 B4 7B B6 9F 2B 2C 50 CD 43 1C 65 09 9C 67 18
 BF 03 9C 40 73 26 0E 74 B5 27 69 CF 51 DA AD E3
 78 18 50 3B 3B 2D 3F C4 C1 45 8C AE F6 4E 78 F6
 A6 18 81 A8 32 06 FF 1F 27 E1 BB D0 4B 21 CC 09
 41 55 5D 53 19 21 C1 D5 E9 9F 55 A2 C8 A3 15 01
 F6 46 CA FC C4 E5 12 19 CE 7C BC 86 89 26 58 82
 71 B1 C6 9A 6C 87 EB 51 BD 0F 97 78 D7 30 67 B0
 62 6D 42 11 FD 2B 60 1B F8 96 C7 F5 8B AA B1 64
 8B 73 8A 85 9B 74 E8 9E 9A 43 D8 4E 33 D5 22 AF
 30 F6 D2 10 7D 5C 8E 82 AF 47 45 DB 94 E7 73 C9
 B7 A6 57 C1 84 A8 9B 3F DF 25 E0 1F 69 75 B3 EB
 4E 54 1D 50 B9 CF D3 76 E6 EC 27 15 6C 2E D3 C9
 87 8F 63 B2 3D 76 95 A1 ED FA 44 17 58 A7 4B 43
 7B A8 CD 11 B8 DA 87 CE 53 36 03 E1 1E D0 41 B0
 D6 68 3D 06 2A B7 A5 C2 FB EB 25 A8 FC EE E4 AC
 C1 91 7A 10 EF B5 A5 E0 3C 5D C5 2F 92 60 C6 53
 46 D0 1C 77 20 C9 C8 49 8E 6B F1 F1 8F 4E 1D EC
 55 7E 4E 7B 8B EB BD 8C 09 DB 19 C5 26 49 F7 DA
 17 CE 07 83 B3 EA 80 5F 46 6B E4 04 AB CF F1 1C
 CE FE EF C7 CD 86 11 DA 07 CD FD 20 81 FD F5 E7
 9D AA 31 2B CB ED 7B 7D 9B 95 D6 CB 63 30 AB 31
 0E 5B FB DB 3F 62 FE E3 D7 6B 06 67 4B 75 79 5A
 22 6C 19 C8 F6 F5 70 8B 7B 47 AB 18 02 87 CB 09
 6F 45 C2 F9 02 64 DE CF 01 3C 5F 4C 1C 31 52 5C
 C8 CC 77 72 52 95 9F 3F C0 BC AE 55 71 19 3B D6
 9B 10 44 8D 9B 81 2B 2C 7D A9 2D C4 F2 F2 BA 9B
 89 2F 9F D2 E8 D2 91 45 1E 26 DD 9D F2 62 68 F8
 38 CF 36 19 24 86 C4 08 72 89 14 6A E9 06 FA 90
 0D 99 41 2F 1F 9D 2D 0F D1 2B 5D 13 3C F7 F2 45
 DC AA 25 28 F1 64 4B D8 B3 03 71 93 49 82 DD 27
 3B 49 CA 7F 9C D5 8C 5B 85 38 A6 12 AA 0C D9 9F
 DC E3 15 26 20 24 F5 92 DB 7D 22 CE CF 42 30 34
 28 B0 9E E3 EF B7 7C EA FF 39 39 6A 92 92 C3 C1
 C7 F5 1A F5 F5 6A 9A 6B 9A F2 06 6B 94 6A A9 76
 FD E4 21 D9 7C 78 D7 DB E8 8B 35 87 CF DB 16 7D
 81 7E B9 EE 3C 7E 71 92 1F 8C A3 58 2F CB 32 D2
 F2 01 35 32 B6 A7 B4 0C 0A 3C 8C E1 52 44 77 DB
 BA AA 0B C6 9B CE 4B 80 1E EE 13 D4 13 77 7E 08
 57 6A 37 15 D8 BF B3 22 A1 4D 7D 75 D0 8A B7 33
 5A 66 E4 3C C5 B5 9F B1 99 CE 9C 25 4C 15 7A C6
 84 FE CA 48 1B 08 DD AC 97 B7 02 20 68 51 1C D4
 5B 54 95 74 98 93 57 FA BB D1 9B 1F B7 52 EE A7
 F9 72 33 F6 F1 1D C0 E4 BB 4F B8 E7 76 8B 56 62
 C0 48 16 43 B9 4A 95 9A 7C 4E 49 C4 E5 78 05 7A
 19 D1 2E B8 06 F3 AE 4A E8 A6 71 23 36 79 22 A5
 DB 0D 99 88 07 2B 4F 5C B6 F3 2F B5 96 49 AB 9C
 B7 56 A1 E7 5B 56 86 03 F7 81 1C D8 EB 57 ED 4B
 C6 53 FF 06 5C 25 5C 43 47 61 6E 82 45 0D 2C 7B
 87 52 79 65 2B 77 0B 1D 58 94 63 42 29 3F 0D 5E
 0C C4 5A 9F C5 45 EE A4 A3 4D 28 AE AE D1 B2 3D
 63 BE 21 DF 6D 76 38 9B C0 50 6D 0B 9C 59 74 4A
 1A C5 D1 D7 29 94 69 F2 29 3E 12 B1 81 F9 3A B6
 9E 40 7E 0D D1 92 FE 21 1A 8C 7B 10 0D 17 04 24
 E7 63 81 2F 79 92 7A 7A 8C 8E 69 FE FE 3D B6 9E
 B7 EB D1 B1 9B 02 DA D7 13 46 32 D7 B4 92 15 A0
 6E E0 8F 23 66 50 CA 4E 7C DE AE 43 10 7F 50 2F
 49 85 34 52 D0 8D 8B 2F 89 AE 05 33 BF 7E F2 95
 5D 96 29 24 FB 3E CC C9 43 6A CB 26 7A 2E 57 96
 5F A4 1A A6 2D FF 19 75 94 C4 A7 68 24 A0 D3 4D
 17 25 0C FA 5B B8 BE 3D D5 97 37 4F A7 3E DE EF
 3C 8C 7F 6A BF 0A FA 38 D1 D7 00 64 22 82 83 3C
 D2 AF 7C F1 2A D3 9E 86 8C 15 3A 98 F2 CD F6 9A
 17 B8 63 8C 60 C6 A2 DC 27 86 60 B4 2A 62 AF 14
 CC 28 CD 42 D9 31 19 FD 52 FD 6B DD 3C 28 94 74
 40 A2 93 CB FA 04 46 79 DF D8 5D D8 A1 F5 A1 37
 E4 C5 A5 CD 96 C8 19 1D 5C DA C4 B8 A3 41 5E 5A
 C2 65 FB 84 38 3B 96 C3 08 57 AA 27 C2 62 70 B7
 50 B9 AF 01 DE 61 A7 9D 75 AE 84 22 AF 4F F0 49
 56 E0 3F 65 7F EB 3F B5 57 5F 0C BC 27 2A DD 0A
 A5 E8 AE 80 34 1F FF D2 18 8C DF FE 9F 95 35 2F
 9A 96 82 95 BC 2B 83 82 CF C1 D2 1F 45 38 03 3E
 5D 1B 1E 86 52 8B 09 48 9F 62 C4 3E 40 E6 E0 16
 F5 BE 05 1A B1 2C FC E5 35 D5 5A E9 0F D4 38 C2
 BA 7E E2 9E B4 DA 0B 84 3E 28 6F 00 07 66 76 73
 BB 8E BA 13 B4 A2 9E 23 54 C5 72 DE AE F0 AC 30
 60 16 F9 68 C2 9E 23 DC 9F 16 BE 11 75 C2 50 AE
 30 C1 84 77 60 2E 56 61 F0 94 F0 D8 5F 0D B5 61
 17 03 6D F2 FC 63 1D 3B 0D 82 1F 17 44 C6 7E FC
 89 75 88 CE 41 FD B0 85 3B 63 DF 35 8C 8C FA C2
 4A 27 71 AB 25 E8 95 DB DE A6 5F FE A9 4C 5B E4
 FC 07 E1 4F 85 DE 3C 95 C9 B2 D5 45 43 A2 F7 54
 80 1D 80 FC D7 16 CB 26 FD B9 90 15 81 6D 92 36
 4B B0 50 BF DB 65 95 56 5C E3 77 71 1A 4E 63 DF
 CA C3 84 EE B7 B2 2D B6 C5 9E B0 16 65 95 7F 88
 54 67 0C 87 08 01 50 92 FD 56 97 31 D5 17 B9 CC
 E7 51 3F 0A 04 C0 D8 9D 5D 4C 8D 22 22 38 90 62
 B4 D5 D7 4D 03 94 3F 56 9B D6 8F 77 51 3F 8F 77
 53 BE 55 10 C2 3C B1 A5 1A 99 96 A2 4B C9 4B E7
 D4 0E 1D AF AA E3 D6 69 6B FB BB AA 5B B3 B1 E3
 00 C8 8F D1 7A 9C 9C 20 C8 96 62 50 BD 84 19 EE
 45 BF 8C EE E7 3F 0F EC D0 CE 6D 14 CE 28 B3 04
 37 77 1A FE 81 7B F4 83 46 91 8E 6E 5B 85 96 F1
 5B F6 C7 DC 0B 85 EE D7 37 B2 00 66 A7 F5 FD FA
 F9 77 85 A4 A5 F2 02 03 F5 82 CD AE 9B 3C 79 94
 43 BF 8C 51 C0 99 CD 5B CF 1C 59 1D FD 0C 34 1C
 4C BE 6F AD 09 9B D0 7E 21 66 DC 94 33 DF 6E 15
 DC 5F 80 DD 22 0F A9 8E 91 05 55 93 B7 B1 A9 FA
 68 90 2B 47 99 1A 2F AB 42 90 5F EF A2 3D 0A 8B
 E7 62 02 3F A1 2A 00 DB 79 D9 8F EB BF BD 90 9B
 23 B0 2E FC D5 CE 75 B2 CC 73 2D 6A 7F BD CB 99
 0F 1E B4 AA C0 B4 39 F6 A4 85 B7 99 D1 03 87 29
 C9 B0 83 28 E0 C1 91 4C 1C 70 60 A5 AC 3F 09 6F
 92 8E 42 55 F2 8F DC 43 14 49 8E F8 89 88 34 9B
 16 8D 71 88 07 B5 0A 8C 5A FB D6 43 A7 56 36 50
 00 AC 77 E3 FB 33 0C E8 00 97 92 5D 9E 5E F1 24
 F6 B2 D3 7F AB 30 FF BB 6F F8 9F DE D1 9B B4 28
 C5 AE F7 D2 09 58 A2 7E EB 64 21 F9 78 AF C1 54
 78 84 BC 5E 46 CC 26 33 6E 61 4A 4F 94 56 1C 0C
 C6 B7 CB 42 1A 05 7E 44 12 D4 64 2A E8 B1 6D 66
 98 A7 2D 31 4F 5C 29 B3 9C B6 3E C4 66 A2 F8 1D
 DA 5F 3C 7C 09 BF 4D 31 06 9B D4 40 25 8C 26 6B
 F6 B3 29 E9 85 AD B7 CF F0 A6 6F BB DB 37 A1 12
 E4 96 9B A5 6C 35 53 1D BE 50 DA CE 34 B2 B0 4C
 2D 41 C5 24 51 3D BE 2F 31 E1 BA 82 E2 67 AD AB
 5E 96 51 A0 08 F1 2B 6E 7D 31 D9 15 3A A3 20 0F
* End 67501744 3205301079