* LTspice Encrypted File
* 
* This encrypted file has been supplied by a 3rd
* party vendor that does not wish to publicize
* the technology used to implement this library.
* 
* Permission is granted to use this file for
* simulations but not to reverse engineer its
* contents.
* 
* Begin:
 57 21 D2 3C 8A 9A 70 36 4C 4F 40 18 86 38 E5 56
 4E 6A 67 E5 D8 20 40 89 D3 D5 85 F1 51 D6 A3 FA
 CD 9F 36 56 DD 96 A3 39 57 2D 84 BA 21 49 94 DB
 7B 9C A8 BF E7 C6 64 55 D5 FB 1E BF B5 3F 76 32
 9E 3C E0 4F 8F 12 7B CB 90 E6 B6 7D BB 79 2E D9
 2A A8 A1 1D CF 42 97 82 4C D5 89 B3 5D D3 47 0D
 B9 E2 C5 EC D4 6A B1 5B D3 55 46 4C 6D 3B 16 2B
 99 1A 24 3A 9D 83 D7 1C AD D5 85 96 45 DE B5 C0
 F2 FA 55 48 9D 54 C6 AA 33 13 67 29 3C 6F D1 F5
 FA 60 BE 0D 5E AB 6A 0D E5 70 0D 88 D0 5C 04 1C
 E2 20 16 57 31 73 4B 6F C4 B1 39 E8 43 1D A0 CD
 D2 CB 3D 5A 87 0C 85 36 CC 65 B5 EC 01 6E D0 31
 FA 0C 09 E7 1D 47 7A DD 32 C8 54 EE BF 1E 6E 89
 BE 13 6F 89 C8 E1 33 8A 42 23 EC 9B FB CE 55 A6
 A3 D2 74 0F CA EB 03 88 3F 99 4E 00 8C 73 92 3E
 98 C9 08 7D 08 E6 57 D2 43 2E 84 01 A2 25 7E 18
 2A 18 7E 1B 7E 0F 6B A9 D2 67 11 99 AF A3 F4 61
 01 7E 36 FB 5F 92 8A 2E 53 23 28 B4 F4 24 71 AE
 1C 8B 6C E3 2D 24 A4 2C 5D 51 D3 FB 6D 8E 56 C1
 17 8E BD D5 91 BA F5 FB D2 C7 12 CA D5 AE 26 27
 9D 8D 41 3E 5A 8C 1D A1 6D E1 54 6C E2 DC 1A A2
 BE B4 3C FE 8D 2A E9 6E 9D F1 F8 A3 3E 37 6C 29
 8E 08 4E D2 92 13 F7 14 67 76 54 F3 C7 32 1C 91
 29 DB 40 92 FC 91 2C BE E3 4C CF A4 B8 39 32 A8
 9C F2 EC CB E3 8C 71 90 DB A1 9F 48 D3 24 5A 51
 BB 67 4B 7F FF DF 76 36 89 77 16 44 BD A3 F6 46
 83 1E F1 95 6C D4 FA 52 DF 36 20 53 65 6C 37 C4
 62 41 62 DF 24 BC D2 2D 8B EB A5 2F 27 15 35 9F
 4C 28 BE 69 50 58 51 69 BD 04 BC B1 39 85 B6 8A
 A5 C5 FB 9D 54 D2 F9 29 B6 21 C8 E5 32 77 71 BD
 CF CB EA B5 EF 53 76 C9 CD 29 19 74 2F 24 F5 CE
 0E CD 6C FA E0 B5 48 D5 EA 9A 58 12 EA 9D FB 02
 DB E6 41 6B 2B D7 49 14 9F 7D EC 31 44 4F 52 C5
 D0 AC 51 D6 8F DA 1A FC 5F B0 07 D0 F4 7A C3 A4
 D4 CB 0D C6 8E 32 C9 79 0B A8 C9 FD 0B 7E 4B A8
 2D 3F 17 1C 8B FF BF DB 51 0F 3A 0C 5A 26 34 17
 70 E3 40 E2 74 4C AC 16 13 CC 11 7C 60 50 BE D6
 5E 16 53 9B F6 36 37 84 EB 33 B1 AF 26 71 BC 44
 44 D3 B5 52 5D 7A CE 5D 19 48 05 11 67 34 56 A8
 3F 29 CD B6 90 85 10 70 AF D8 B5 D6 E8 77 BB 7D
 F6 75 BC 06 89 A9 96 A1 A4 AA B2 97 32 F7 AA 13
 B8 59 1A B6 02 FB E0 9C 20 F2 5C 79 FA 22 68 60
 E4 4C 98 87 13 4D 4F 81 B5 74 66 A4 BA 34 17 A9
 C4 85 3A 7A 87 64 19 3F 65 4A 27 BB 7A 15 49 01
 8F 77 70 9F 7E F1 0A B9 9B F9 E2 0B 5B 0B 0B 2B
 73 80 AC 94 C1 6D 67 A2 35 F2 C8 FA C8 64 90 E3
 30 83 48 76 15 14 35 61 43 4F AF 39 13 BD F3 9C
 B2 53 55 0F 74 81 1E 3B 09 06 90 F2 07 54 A0 CE
 24 B9 98 91 99 6D F7 71 15 1A EF E6 A0 10 DE CA
 6F 88 9F 7A D9 3E D9 1B AA F1 B1 A2 FA 59 E6 70
 E8 CA A8 B2 3B 3C 16 57 4C 10 53 5D B6 82 AF 5B
 1F 9A 9F 25 83 3A 7D 33 DF 96 09 64 A1 21 48 CD
 8B C6 11 BB 85 D5 F4 B8 F3 40 5C FB 4D 51 A0 D9
 92 B8 7E F6 FE 92 AB 48 36 D3 E8 4F 88 1F F1 BD
 96 BB D4 47 52 9D 89 4C 80 CB 76 4F D0 31 11 E2
 47 3F 3A C0 2D 82 89 7A F9 60 16 E3 FF 2B 5B 98
 72 44 F3 06 E2 D5 67 88 29 7E DC 92 66 71 60 F6
 F0 50 28 87 A5 9A 7A C6 EE 04 1E 7C F8 95 26 7B
 E4 5E 12 96 57 AC 4A 77 23 89 2D 79 8A 6A DC BD
 63 A0 BC 01 E3 A0 2C 7A B5 36 57 95 95 9E AB 01
 4B F8 A3 5A B7 02 0E 25 E6 93 CB 13 85 EA 37 57
 29 36 59 F3 95 FC 47 07 D0 DD 0F A6 39 64 48 93
 A1 F1 6D 9B 8F 42 A9 7A F4 B3 E7 A8 13 5F 14 95
 1D C8 E1 90 71 D0 DB 45 D5 55 C6 EE 4C D5 BD 1E
 8F 85 D8 1E 0C 64 B8 74 03 9A 65 C3 C4 BC 40 8F
 22 7B 53 6C 5B 3B 04 65 6B 64 49 27 5C AA 3D 28
 3A 0B E7 57 FC CC 89 4F 0A 54 EE 00 5F 6D 34 1C
 61 EB 63 AF F6 F6 49 47 03 5E D1 A4 6F D5 6D CA
 A7 E9 D8 B1 33 51 73 FC B4 C0 91 0E 5C 53 60 57
 86 61 E6 77 2E 75 8F DA 91 3A 91 A4 F5 BD B8 DD
 A7 F9 1B 27 EE 6A 8F D3 1B B1 C8 80 80 77 10 40
 FB 52 BD 43 1F 40 30 F8 B1 CF FC 30 62 16 03 6A
 02 5F D2 02 5C 1A 05 DF 8C 71 73 85 12 26 5A A7
 18 48 7D C6 CB 95 52 12 AA 16 68 C1 58 D5 79 93
 6C DA 27 CF 1F 1A 5F 90 66 77 23 1F DE 42 86 07
 FE FD D2 57 5E 77 B2 57 2F A0 C5 8A 1E D4 A1 66
 9E 5E 96 A0 50 6F 00 EC F3 0D 38 12 A2 F7 30 C2
 B4 45 2E 03 B3 69 F6 34 E6 36 BA 8C BE F4 0D 25
 F9 0D 19 3C 2A AE D6 25 19 07 A0 D0 62 7F EF A8
 1A EB 9F 7D 4E 28 15 C7 5B D1 7C 21 D3 6B 08 28
 93 88 F4 69 85 A5 BB F3 3C 4C 99 D4 D9 A2 5D 2F
 61 51 7E BE 45 15 82 20 D4 36 ED 85 F8 00 28 15
 54 45 9E 99 FF FA 5A 9E 8F B2 18 A9 63 CE FB EA
 FD CB 53 29 B8 65 81 46 AE B5 23 50 08 23 74 D7
 12 E6 07 9F DB D5 C2 A4 65 1A 4A 8F 99 95 6A 15
 61 2E 17 B2 81 E1 0D 2F 20 9F 47 41 61 D1 E6 09
 7A D3 B9 CA 00 D9 0A 7C 10 61 0B B1 47 46 0E 27
 09 FE AF D4 9C 9B D5 59 C6 E8 7F 83 C9 CC 34 79
 21 72 0D D3 DA A3 CA 06 97 2B FC 1C B5 1A 90 AB
 A1 04 D6 6E 06 67 FD 9E DF C9 BE 83 5E 71 51 C3
 F6 32 46 18 80 82 2C 55 4A 10 2E A9 D6 C5 FE 65
 A6 D9 D8 68 97 D3 FD 54 1F 87 4D 55 76 9A B2 5B
 49 50 4F 1B 1E 5C 70 CD A6 63 B0 E2 90 0D CB 32
 45 E8 B7 47 42 3E 46 55 02 A9 CA 6F 8B 7F 19 4F
 E2 09 2D D4 72 A1 B8 E8 09 CD 2D 65 B3 9C A6 89
 2B 5E 78 AE 6A 9E A8 42 EA 8C 8A BB CF 22 44 54
 8D B7 0E 36 8D 05 F9 49 20 FE D8 7E AC 32 AF 9E
 79 B7 BF DC A6 01 10 C2 BD 24 22 3B ED AC DE 13
 8A 9B 9E 1F AA 34 D1 56 EC C0 60 9A 57 8D 62 7D
 70 4A 15 68 D1 B3 9E 5C F8 9D 3B B6 C8 44 E1 6B
 02 1D 5B A7 B4 65 4F 39 00 19 E7 2F 87 3D 1B 41
 1F 98 5E 04 1A D1 6A D1 0E 1B F4 46 1C CA C8 EA
 B6 28 6C 4A 50 BE 82 65 08 46 A3 1B 00 B4 5A 89
 10 25 66 16 51 54 8B 93 07 79 F6 F6 09 CF D0 E4
 C1 C1 E5 A9 CA 75 86 C0 8C 5F 9D 4C 9E 3D 90 FA
 83 63 7B 34 E3 16 6E 06 6C 7E 33 78 BF 7C 35 B8
 84 FE E4 E4 86 1E 1B 4B 2D 8F 24 BA 5A 02 E9 D0
 77 82 6B B1 7E BE FA 16 D0 26 F6 B2 F9 77 9E BC
 E8 68 AF 23 97 68 40 7A F8 48 94 E0 D8 28 7C 51
 D3 24 BC B8 3D 03 F0 9E 99 32 19 10 8A E9 49 EE
 08 58 C0 B9 6F E7 50 BC 24 B9 FD E7 98 40 36 D8
 AB B6 57 96 D1 3F 72 86 04 C9 3C 37 E8 3D 07 39
 5A 1E 68 D0 A7 02 4D CB F8 76 50 2E F6 3D A0 D3
 85 CC C4 32 19 CB B0 ED C3 A5 1C 06 62 D2 7A AD
 5A DD AD BA FE 88 44 C4 75 C0 74 2C C8 17 E0 92
 11 DD 5D E6 C0 80 A1 DA 55 DC A2 8F 79 6F 71 9B
 6D 00 06 90 CB EB 1C E8 B8 52 21 CE 63 18 02 8E
 91 A3 1E 3D F4 7A F3 3C 5A 4D 2E 00 AA 0F 08 01
 1A FC DC 3C B3 33 74 30 28 4C 5C AF 9C D6 D0 5E
 13 CC C5 51 FD 51 F9 9F 74 BA FC 51 33 7C 27 E8
 68 A7 0E 44 6D F0 84 FB 7E 9D F9 46 B7 00 80 C7
 82 8C 35 A3 50 13 7F 10 EE ED 42 48 D6 B8 5A AB
 26 34 7E C5 33 11 7D 6F 54 91 D0 B5 BD 13 0A AB
 0A 9C 97 9D A5 ED 25 C9 82 AD B7 53 7F E0 B0 87
 E9 D7 BE D6 03 0C DB 44 83 69 7E 75 1D 4E 41 F5
 B8 AE 6B 5D 3C 87 E9 AF 7B 97 8B 7A 4F C6 74 65
 4D 3B ED 78 04 30 BC C2 1B 7C C6 5E DE 62 95 D9
 37 28 3F 04 68 1E DE 2A E2 1C 04 BF 35 B9 14 A5
 7D A4 C0 A5 9C 31 97 0F 36 45 A4 12 EC A7 5A 3C
 6B 4E B9 04 87 8D 86 94 1E 1E AF A0 D5 BE A5 99
 85 90 6B 54 2F 82 24 10 07 31 CE 5C CA EB 47 A1
 E2 A1 94 46 00 1B F9 95 0B AE C7 CD F0 A5 14 ED
 A7 60 95 F5 32 6D 41 56 85 15 B8 52 05 F7 EE C6
 38 57 EB 00 23 70 7F 7E 67 52 A8 CE 73 22 08 CF
 AF BB BF 5B D7 36 14 7F A9 7B D6 67 F8 BC 39 28
 45 20 E9 20 A1 45 7A C0 C1 89 19 85 57 0E D3 07
 B0 FE DD 86 4B 9F 19 F7 3A C0 A3 4F 3B 0D 3D F2
 6F 57 57 D9 3A B7 90 34 D0 03 87 D2 35 23 2B 0E
 D0 5E 57 7A CD 5B 27 16 FF 77 26 2E B7 84 23 EE
 A4 16 31 9F 4F 47 BA 88 42 B7 58 ED 68 F8 76 E9
 C1 84 16 44 B8 56 1D FE E0 69 2E AB 22 CA 2F F0
 FA 1F FC D6 BA 92 A2 64 6C 2D 46 ED 28 40 0D 71
 AF A1 13 E7 E9 50 65 94 26 87 93 A2 6E F1 87 5F
 56 B1 2B 9B 09 99 A2 DB 18 03 EC A0 F5 82 79 B7
 7D 97 28 10 01 A8 91 3B FE 5B 8F 37 5F D4 60 84
 DC 0E 3C B5 2A 97 08 10 54 CD 47 62 A2 D1 26 2B
 0F 82 55 86 C3 C3 DA 13 0B 4A 6B C9 81 64 DE FC
 1C D4 34 40 7D 4A 42 42 56 DE A6 0D C5 4A 4C B9
 3E 8B CA E7 36 A2 52 DC 24 92 1B D1 3B B1 8D 29
 4C 54 FC 26 D9 10 7A 58 ED 07 4B B2 A2 67 44 77
 FA D2 6A 14 84 81 49 43 0E 7D C5 5E 60 EA E8 47
 E9 DE DF 46 B1 BA EA FA EC FC 1E 17 68 53 4A D3
 EB F1 70 7D 60 22 26 F0 C2 63 98 AA B1 A5 E6 10
 82 07 80 BC 42 08 25 BA CF 76 C4 DE 3F 74 EF E5
 99 A7 2B 6A B0 DA 21 5F 56 BB 67 0D E2 88 96 C2
 85 B2 D4 0B 51 DD BC 53 D1 18 DE AF 6C F3 2C 53
 D7 B1 A4 CA B7 4C B1 C1 71 93 CE 32 B6 71 B9 93
 5B 54 C8 95 AC C8 A8 6B 86 3B E4 E6 13 66 26 79
 4B 0A AE 48 92 C2 F5 96 FD 40 D6 76 36 34 9A E5
 C1 F6 B5 4C 8B A6 5A F6 70 06 48 4E 71 75 86 9C
 93 0E 20 21 27 95 C8 17 6E 7B 70 06 1A B9 0D 65
 7F 78 DF 00 F1 EC F3 B6 64 35 B2 E7 ED 3C 00 3B
 16 41 9E 49 DE 35 49 88 9D FD 26 BA 6F EF C2 51
 EA 7E 70 2C C6 0D FA 49 98 FC F7 A8 0D B9 C6 E1
 D2 1F BE 3C ED 18 53 1A 2D 12 A2 95 BA F8 B5 E7
 F6 3F 08 74 6E F7 FB E5 3D A4 8D 21 E9 6A 4A 1E
 03 F9 B8 5F 30 A6 57 D5 D2 A6 ED 20 7A 44 5D 4C
 DE 70 4D 06 22 96 BC 2C CF 51 C6 E7 69 B2 10 14
 6C 28 30 75 08 20 E4 71 21 B9 8A 20 38 61 14 5E
 2B C8 DA 45 93 5F 56 17 80 3C 1F 04 6F B9 2A 94
 E6 66 41 DC CC 8C DE 47 41 E0 02 C8 D3 32 29 2D
 9D 4A 76 DF AF CF 70 55 30 C4 40 84 6D 1A 05 C1
 77 5F 3C 9E DF 3D A4 03 A7 02 83 16 A1 0E 0A 62
 3E B9 28 68 84 D5 4D D6 6C 82 AE 18 58 8B D4 FB
 30 8B 89 F3 73 74 33 91 90 0B F3 AD 63 DB 54 89
 EB 7A 40 4A 1C B0 A7 80 38 FA D4 A0 C5 D4 96 F0
 99 BF 54 EE F3 EB 83 58 40 AF 24 D7 B5 12 79 DF
 A2 FE D2 09 B7 7F 80 B9 03 EF 8E 73 C1 8F E6 4B
 61 92 0D C7 C9 23 D9 26 0B 94 E3 C1 D0 49 6D B0
 D1 0F 85 8A B3 7E 62 D8 CE E7 C3 08 E8 38 12 2F
 CC E2 96 FB 85 41 91 5F 19 14 4A B9 E5 AC 13 8F
 13 AD FE 63 DF 8B 70 49 27 08 DC D7 47 01 B2 A1
 7A E6 B5 4C 99 F3 C2 8C 92 13 A8 2E 40 62 E9 F8
 66 ED 5C 56 2E 83 AA 8C 77 F2 5D 45 0B 65 7A 3A
 57 8E 72 01 3B BB 0E D2 EB C6 19 49 6F A0 4B 86
 02 60 60 5E C7 91 E1 90 9D D9 96 C5 46 80 FA 0A
 31 2B 7C A7 BE 9C E8 1F 09 7E C2 45 2A 82 92 59
 3F 39 F5 DB 80 59 DF 11 21 50 8B DD C3 10 E5 59
 80 66 E6 8B AF 1E 42 4F F9 97 CA C6 9A 99 C2 49
 2B 93 9F 2F 34 DF 8D FC 23 94 C9 90 4B C8 83 FD
 13 54 E4 B3 D2 96 8B 1B A5 F4 8A 73 B3 19 F9 77
 98 1C 0C B6 54 18 06 DB 60 48 B3 33 87 A6 11 36
 D5 6E 45 D6 75 9C 16 4F 32 E9 0C 0B D9 B4 54 CE
 44 01 70 4D E2 94 05 9E FC 13 6A D1 E6 00 EA CB
 13 4E B1 0A 5D 71 DF 50 F2 6E B6 9B 10 B7 B5 3B
 63 F5 29 DC D9 64 35 6B 4C EC C8 7D 87 F1 FA 14
 F7 86 B7 A1 9F 5F E6 B2 E5 B1 A8 80 65 D1 43 8B
 CE A3 91 EC A4 B3 2C 48 7E 1B B7 AC 5F 27 BE 7F
 6F 27 F4 18 6A 27 DE DB 21 13 A3 98 39 D0 72 F4
 39 34 06 82 15 03 2B 20 E9 5A D7 8E F7 A4 BF 81
 D8 04 62 B7 5A 4E 45 4E FD 4F 80 01 4E 57 AC 2D
 3F C6 0B 39 42 44 0B 71 18 9B 97 97 A2 5B 2C EB
 B5 2E F9 E1 53 FD 61 E0 3D 8A 01 19 A9 F5 CB 76
 09 18 5B D4 CC 10 F3 6B C4 B0 D1 81 5A 0B 59 B6
 08 D8 10 B6 15 E2 BF EF 81 E6 B9 16 26 6F DC 5C
 20 0E AD 22 F7 14 45 42 E4 34 D0 0E DD E5 BE 3F
 59 26 BF DB 72 35 DA E1 26 09 B5 1F E6 E6 F4 6B
 15 F1 A1 27 63 4C 0E CC 7F 4C B9 3D 48 B3 27 27
 D1 B4 B4 EA 3C 72 BE 52 3B 31 D6 FA A2 23 FE C6
 15 C5 0E 5B 83 05 9D 85 E3 9A BB F3 D1 E3 98 6D
 97 B1 31 A2 C3 5F EE 57 A9 41 0E 01 5C 06 76 DB
 F2 09 7C 75 B5 C2 A0 AA 83 CF 84 C5 E4 F3 4D FD
 DA 47 02 6F CC 16 D0 66 F4 79 96 C7 74 B1 5E AB
 45 83 8B D7 E4 42 7A BF 41 68 11 95 DA C1 51 A2
 0D 01 1D 73 7A FB FA 13 48 C8 4D EA 41 17 EA 25
 9E AB 16 E7 0E 65 CB 68 F1 7A 81 8D AD AA 76 B9
 9B A1 C2 05 86 7B 2E 73 8D 86 F5 F5 FA B9 23 C4
 20 1F EF 2E 5D D2 65 93 AF D7 47 3F 43 AA 0F 55
 A1 55 D9 33 AD 49 24 D0 73 59 0B 9D CA CE 5A FC
 62 9B 07 AD 1A 47 48 41 55 3C DA 75 E9 04 B9 7A
 3A 8F 45 CB 4B 8D 1F CA A2 68 8E B8 15 46 2D C0
 D9 21 63 3B 16 3F A2 E7 64 80 C5 27 DD 67 4A 76
 D3 1E 39 47 12 05 16 D2 C9 3A 6E 41 36 69 44 3A
 3A EE 4A 09 18 28 25 8C D1 8D 55 0B 86 13 46 1A
 45 92 71 57 F7 DB E8 E5 68 94 E7 F8 59 B5 9D 4A
 C1 10 B4 A2 DD FD 85 63 53 D7 15 6B B5 6B 20 05
 2A B1 F5 26 C8 BC C6 7C 0A 10 AF AF 2A 4C 34 3A
 DE AA D5 17 E4 20 0A D3 29 6F 41 4D 59 B5 1C 85
 B7 44 3A 9A 03 51 6D 8E AC 4B 68 91 68 B0 13 17
 A0 5F CF AA 30 58 93 DA C5 B9 28 FF 25 97 ED 55
 3C 0D F8 56 95 5C 29 5F 34 CE 0C 35 BF 92 F0 87
 3A 56 AF C9 CD 8C 38 D1 6C 20 70 BB D9 6E 14 5B
 43 F0 A0 86 9D 49 70 9D 69 A8 7A 7A 3B A4 7E 6E
 C5 BA AF 6F E7 25 D2 79 F8 68 34 1D 56 D0 1F B2
 31 50 72 7E CA 00 E8 FA 7C B1 82 18 0E E8 25 68
 A4 90 15 C7 2B 9B 9B 9A 41 6D 04 BB FC 69 A9 3D
 2F 9A 0E BC C3 6B D8 62 02 D9 D8 A0 88 89 1D 8A
 63 41 BF 25 08 76 B7 C7 56 CF 57 E3 5F 38 DC 78
 19 B2 96 E7 45 E1 34 DD 96 A2 8F 54 5A 88 DC 7E
 8E E2 8D 78 F3 35 20 47 3F 54 17 29 36 9C 42 2F
 02 89 1A 8E 7E DE 1A 22 6B 30 22 BE 3F 97 29 2C
 25 6A F2 D9 FB CA 53 1A 31 DA 7D 9E D9 19 C7 4A
 6D FB C9 18 D5 95 55 E6 C4 C0 A4 9C 24 BF 20 DA
 FA 2A 57 CE 2C 93 82 34 21 11 AF 0B CA 3B 8F 59
 F9 A8 28 60 24 15 62 31 FB 3C F5 CE 91 22 5E B7
 11 79 7F 56 2B F5 0A 2A 82 75 1B 98 07 21 BE 96
 0E 27 BA 76 CB 61 A1 31 8C DE E4 62 6C 1B BE 83
 F4 85 A9 EF 0E D4 B9 FD F3 DE C5 41 83 94 E8 4E
 8A 0C 68 CF B2 B8 C0 CC 97 31 FA D8 2E 01 B0 F8
 A6 E7 6E 6B 4D AB 93 3C 77 A5 2E FC AD 27 28 DA
 68 4A 07 F6 CB 40 CC 0B 57 D4 DC E0 02 D9 37 65
 88 3C C6 19 28 CA D8 1A 78 16 90 C9 EF 35 08 80
 44 96 67 5F 5B 32 5C B5 C1 A5 F6 7B 5E 38 10 0E
 D5 44 C4 DC 07 2F 0C 3A 2C 91 61 F7 60 AD 6B 4E
 39 AF 85 CB F6 CD FD 02 90 DB DD 75 65 43 7E 99
 B5 3B 4D 9D A4 AC 3D 48 42 63 ED AB 4A DA 33 69
 B6 DD 89 FB 76 31 CA A5 D6 2B 88 A7 36 0A F3 0E
 31 D4 A8 7F EA AB 50 94 92 A2 C4 DF CC 91 AD AE
 22 C9 E5 91 93 A3 2D B5 7D 3C FF 0C D8 36 C0 48
 13 02 B7 75 F0 E0 47 AB BD 5D 4F CE B5 91 02 3D
 9A 88 A4 77 41 4C B9 33 B6 0F 63 6E 2D 0E BF 6D
 7B CC 5E 4A 60 F6 41 73 E1 78 FC D7 5B 1A F9 E6
 41 43 4F 77 61 E3 35 96 F4 E6 3A FF E2 A3 41 4E
 CB 5A A6 58 2B 10 6A 93 43 78 32 C7 01 20 25 70
 24 AE F5 89 3F 39 2B 15 B0 1E A9 7C 62 74 80 43
 00 F3 75 47 3A 62 FE DF 8A CD 8B 23 78 51 C6 D5
 A5 EF 8D 1E 75 C9 C1 9B 9F 95 DE 45 7E 03 FA 74
 F1 91 6B 32 EE EB D7 16 54 80 B5 5D 76 AA 4F E4
 F2 CF AA B0 2B DB 75 F0 FC AC 83 58 DE 26 82 EE
 CD 30 F3 40 B5 C4 C7 B4 33 DF 95 A9 F8 FD A0 32
 22 CC 77 DD 81 8A 7E 79 0E 85 06 13 65 C4 A2 9F
 08 C9 95 2F CC 0F ED AD CD 64 22 40 CE 93 7D 04
 0E C1 D3 ED C2 C3 67 5A BF B3 43 FA 79 E4 2B 5E
 74 03 DA 99 FE 84 6A C8 8D 1C 50 4A D5 31 DE EC
 55 80 01 47 0F 80 76 B4 7A 67 48 7B 6A 82 D3 B3
 6E 67 11 9A BE E7 57 C4 7F B5 B2 AE C4 59 E2 93
 D5 69 5F A0 36 95 38 40 B4 61 89 55 51 C6 61 6C
 71 E7 42 1F F3 CA 40 96 B8 3C 00 EA 07 FA 0D 60
 AB 1C 29 0A 92 0A 09 B9 4B C5 22 42 13 42 3B 0F
 74 D4 E7 B6 70 C7 65 22 12 08 1F 7E 7E 5A F0 40
 A4 68 F3 31 D0 2D 6F 71 59 D1 75 DB 2C 46 7F D8
 05 38 18 C1 60 BE 4A 51 56 9B 1E A0 B0 A4 BF 96
 9C E5 82 78 27 55 A4 21 17 33 91 C6 BC D2 79 FA
 9A 9D C1 61 DB 93 95 99 04 87 74 F7 D9 41 ED 2C
 1F C3 EA 50 6A 88 CE 9C 6B D2 D2 5D 50 0D 79 D9
 75 FB 64 B1 0C 26 91 13 2C BB 1A 2D D7 F7 8C CE
 81 D0 46 CD 62 50 E7 3E CB 98 2D E1 C7 0B E6 53
 64 73 67 6E 7D C3 BE 45 92 04 F8 8D 7A C3 98 66
 3F AA 54 AE EB BB 19 57 9C 77 14 D9 84 4F C6 45
 47 83 DC 86 ED 81 07 E9 5D 1D 1F DD 94 56 1A 89
 E9 0A C6 C3 C3 CF 50 1D DB DC 36 8C 89 76 15 38
 E3 88 9E 08 8E 39 D6 F7 A0 00 33 28 A1 2E 4F 5C
 76 27 99 33 24 ED F0 15 E3 AB B9 0C 52 6F 04 AF
 EF DB 87 4B C9 AF F0 27 D4 AC AC 0D 47 4E 71 A9
 84 74 A2 F6 BA 03 43 AF 10 8E 23 3F 33 ED 71 B0
 D8 9D 63 41 72 BB 60 DD F4 8D 44 DB E0 6F 8E 50
 FB 7A 07 46 D5 6D 5B BE 30 95 06 11 EC 2F B6 32
 D7 97 0B 7C 58 01 B8 32 70 7E 5C 62 E1 24 68 32
 E9 3D 09 B7 C2 DF E4 B3 28 FC 31 51 23 1A 0A CF
 F8 43 4E 0D 3B 6E D3 65 16 FF AB 5A 0E 11 7D 55
 56 40 A4 8A B4 84 C4 53 C6 EC CA 55 DC 12 E9 17
 EB 3E 0F CE 4B 6B 13 21 59 DA 9D D3 24 1D 7C E5
 57 D9 94 B0 49 A1 3F C7 E1 36 77 CA 1C 45 5F D5
 ED 28 B5 0A 92 61 B0 FD 71 52 94 3E A3 85 84 17
 CE 0B 6D 6F C8 EB 81 EE B9 33 A2 71 B6 ED DE D0
 27 1F 21 06 C0 4C 2C F3 35 F1 AA AA 30 C5 64 48
 59 46 0C F0 0C C3 DC F4 46 1D F9 23 78 7C 4C EC
 A2 5B 64 CD 18 6C A5 1B 82 B5 CB 89 14 70 D3 3C
 09 74 EA FF AB 6A EA 08 4E 23 71 72 4F F6 DB B7
 CF 37 8C 68 E1 B8 8E 6C CB 12 AA DF 59 CB 0E 3A
 CC 87 F1 EC F0 9D 85 F8 2C 2A 47 9D EF 63 FB D0
 9B CF A7 D7 1F 6D 2E D3 3F 60 7D C4 9C 38 49 17
 0C 42 11 AB 9D A7 5D 8C 90 83 03 AC 2D 31 AD 31
 5A FE 12 80 AB 10 1B 19 C9 21 32 9E 5B 3E 72 7A
 C0 10 26 13 29 C6 37 33 7E 2F BA 4D 8E E8 22 B8
 8C BD 47 50 80 46 96 6B 61 99 27 82 D9 39 43 64
 56 78 13 E6 FC 7A 77 B6 88 36 D7 AF 0B 52 7C A7
 DC 8D 20 60 E5 75 A4 8E 06 F7 15 62 39 FD 97 4A
 1F AB 71 A4 1D 24 B3 96 4F D0 2E 23 86 09 EA 58
 CB C3 61 60 20 44 EE 8F 7B 88 70 EF 76 F7 E3 9F
 1E 87 0B CC F8 F9 7C BD E5 70 1A BA 3A B5 26 6A
 08 80 39 3D 5F 7B D9 54 EC 1D 85 94 78 35 C1 2B
 F5 9F 81 8E E5 1C C1 36 2E 9F F3 14 60 FA 4C DC
 B9 BA 2D 8F 2B 36 31 EE 1C 1B EB 2A CC 11 40 6C
 4A BD F1 56 28 EA 20 34 29 BA 9D 5F 1C 30 E4 E3
 D3 D0 62 A8 BD 28 C2 CA A4 DC CB 6A 94 F7 97 EC
 01 52 35 24 1A 95 A4 9E 2D 47 5D 2A 5F 56 D6 BD
 BF 32 E8 58 77 CA 76 F6 CB E5 E3 87 86 56 17 15
 28 F3 88 C9 6C 87 82 6B 31 C3 D1 6E 9A 1F 69 17
 E5 C4 5A F6 25 D8 91 0B 97 DA 80 5E E1 AD BB AE
 F4 31 4A 91 D1 96 F1 EE 2F 99 7E 2E 1A EB D9 9F
 69 7B 7E BA 43 36 7A B8 ED 23 22 C6 E7 2E 6E 7C
 55 DB 7D B3 7E 28 A4 E7 73 31 25 48 EA B8 AE 0E
 98 16 6A 6C 29 65 C8 91 7B 43 33 56 31 17 F3 60
 A0 74 FE 6F 66 7F 79 F9 94 C1 A2 B9 80 BF 4B D1
 52 36 A0 46 06 72 B9 ED 30 03 FC 52 3E B3 F0 B4
 BE 12 8B 3F E9 41 A8 53 85 E3 DD 82 48 3E A6 E3
 22 04 3B 42 99 F1 77 62 32 E6 6D B6 95 AD 4C 8F
 18 6E F2 57 FA C4 90 BF FC F2 B5 B1 F3 35 A9 41
 3E 65 7E 47 74 A9 89 5B FF 0F 18 BA 15 D4 AF 40
 3F 26 03 CA 54 0C E3 CD 19 74 1D 06 BD D4 76 43
 79 F3 09 C3 CD E3 25 E1 96 13 13 7C 57 23 47 FB
 74 33 B7 53 66 1F C1 C0 CC D9 A5 26 B4 77 EE 98
 16 AF B0 21 06 06 19 15 F8 5B 4C 4F 9C 9B E8 FE
 55 C9 B3 EE 21 B1 4B 25 AF 85 AC 13 C1 BD 84 C3
 B1 3A DB 98 43 1E 38 75 AB 97 51 16 FA 2A 11 83
 AF C3 B4 9C 5B A5 9C 9D 61 2B 8B 37 F6 77 9C 5D
 BA 9A A8 B9 F6 57 41 A0 EE 1D CE 07 7E 7D 5C 42
 DE FD 09 94 2F 7F 36 F4 49 0D 86 87 2B D5 13 27
 CA 95 96 AF 29 AF 96 2D 3E D3 42 A1 6A FF 48 6B
 53 10 D6 11 73 5A 2C A5 D5 3F 7D D5 E6 8C AC 40
 2E 9A 61 40 72 35 A0 BE 9F F6 B3 C0 86 F8 BD D8
 D3 91 06 AE F9 FF 46 9C D1 DA F5 E9 34 9E DE CE
 58 60 86 1C 3E 0F 38 69 BA 17 26 2D F2 37 56 89
 0A EC AE 5E E5 52 BC E1 24 4E 2A DD 0E 23 7B 4C
 86 96 E2 7E 8B 29 1D 38 0A 1B 2A 97 4B 26 F7 3E
 7E EB 43 BA 77 4A 00 80 F0 EF 39 FB AA 94 DA 0C
 6A 33 67 F4 51 78 07 F2 11 87 A6 E5 D4 34 E6 23
 AA F4 FD 57 4A 25 1E E1 50 CD 6C 0C D6 38 DA 62
 4C 60 25 01 AA 18 14 9E 9D A6 8B 92 50 6B 2E 92
 BD 58 E7 5C 37 A2 67 1B 62 C2 D0 F5 A3 D8 77 3E
 1F 18 F5 5E 4B 46 AC AC 21 28 7C 5A 85 5F 55 A5
 8C AF A6 BD CC 75 F9 78 E7 AE B5 98 3C DE 0A C0
 88 32 86 BD F7 9B E4 C8 10 54 17 36 94 86 C3 BE
 00 44 2A B2 98 0A A0 94 2E 1D 36 9F 5F 05 44 70
 69 DD 84 7F CA D4 81 E7 E1 90 99 E2 52 10 03 85
 C1 1F 32 1A 4A A9 00 3D CA 21 C8 19 7B 65 86 AD
 65 9B 7B 9A 82 E1 52 03 49 6E 4A 0B F5 78 B1 52
 1A 09 A6 9C D7 78 DA E2 83 24 96 46 04 22 DA 20
 25 A2 70 86 34 38 08 B4 B2 AC BE 86 15 3D DC 5C
 EA 2A D2 85 56 8E BE 0F 9D 1F BD 54 E0 70 F8 F2
 87 F3 79 5C 08 E8 7F 7F E3 3F F0 C2 95 2B B5 8B
 24 8A 7E BC 51 8E A9 0C 11 7F E5 E8 8D A4 C4 62
 20 64 23 80 B8 30 C3 7D 74 C5 08 65 AE 18 E2 59
 E5 D5 74 7E 83 04 A9 13 20 E9 1D B7 3B 3F 07 DF
 52 62 D4 9C E4 25 62 B4 6A 31 8D B1 69 6D E7 32
 D0 97 60 97 71 09 49 AB E6 1A 87 82 4C 38 2E 2F
 B6 90 C9 25 58 11 F9 86 44 1D 9F DE 7D 39 AB C7
 96 6C 60 B3 18 CC AE A6 BF 51 3B 09 56 7F BA 0A
 1D 36 6A 8C 4D 5E 0D 6E A0 5C F4 FE CE FA 6C 7F
 DE CD 5E 0C 54 68 31 83 3D 70 50 B1 F2 CA 65 D0
 7A 34 E3 74 0F 47 16 6E 97 2D BA C5 55 01 B6 48
 7A D2 83 FF A4 B1 1F D1 C1 66 CD 5F 90 C7 01 80
 05 FF BA 67 68 D9 01 8A 74 6A 65 35 F1 28 B3 7B
 43 54 B3 73 6C 8F 9F FA E1 2A 94 DD 3C DC E1 AF
 05 FD 56 34 EA 6C 64 70 50 80 F0 BB B2 B5 F8 22
 FC 76 77 7F D6 36 C0 75 A0 F7 79 4E 62 6E C7 89
 BC 7F 67 CC CC 58 C0 D4 E0 C6 08 48 82 55 B9 8E
 D9 A5 0D A6 0B 5C 3A BD BC 37 A9 6C E0 1C 26 CA
 4C 86 8F A8 93 C1 25 59 D9 21 71 6E 11 07 62 F5
 7B 20 98 3D 05 B6 DD EF E2 7B 94 1A C5 D2 45 FB
 2D 11 6D D5 EF 85 EB F1 8A BE D6 CF 4D 53 60 34
 0E F5 72 DB 87 85 F4 6F B7 39 32 6F 2E CB 8C AE
 9B BA F4 B2 D9 B7 77 7F 43 94 21 6E 18 27 4C 57
 74 7D C8 24 30 CD B4 E8 87 4A 11 F7 17 13 18 54
 8B 42 92 E1 82 07 B6 E2 2A 5D 92 5C A8 C3 F1 69
 B0 F8 1B 4A 96 F5 91 CD C0 02 A7 3C B9 0B AB 16
 10 9A 76 2C D6 01 09 8D 54 83 71 4A 54 97 0A 49
 00 93 1B 85 EA C2 92 DD 62 C0 8B BC EF DF 64 48
 ED D4 5C 1B 2D 1F B9 41 09 9A 8D 41 BE 92 0B 53
 47 44 9A 11 6E C8 1B DB 74 77 37 0D 33 E5 F1 AB
 52 BB D7 3B 2F A3 E6 F1 EF 02 AD 58 2F 98 FC 11
 1B 34 09 FE AC B7 1E FC 43 78 7C 14 03 40 57 3C
 44 9B 76 33 04 CF B5 24 53 68 3A FE E7 DD 42 B0
 82 B6 37 0A B9 69 90 F1 F6 D1 B2 C1 37 FB 38 37
 3B 4C FE AE 45 66 1E 0E 8A E4 3C 69 82 7B D7 7E
 21 74 EA 70 77 B9 64 C9 68 52 02 4C 42 03 2B 49
 CC 0F 20 FB B0 B0 5A 48 E5 26 EF E4 96 77 7E CA
 10 FC 16 7D C5 D1 35 D8 FF 57 8F 67 C3 B0 8E 77
 CE 21 FF A0 84 66 13 EA 75 20 F6 AE C8 3A 57 1F
 57 66 EB 97 EE FB AC 18 D0 C1 2A 74 57 C6 8D C6
 D2 9A 75 2D A9 7C 63 30 02 7B 40 55 E5 AA 49 F4
 8A 33 CE 39 0C C1 D3 87 A5 DE 69 E6 CF A6 57 03
 B1 24 96 94 F5 04 34 27 A7 F5 70 DC D0 06 3A 2A
 09 67 53 95 29 53 3D 9F 43 C6 94 90 73 75 68 20
 FB EF 36 5C 84 F3 24 CA 17 98 CE 80 97 BB 19 E8
 1F 33 D7 25 82 4A 93 C6 04 20 46 AC 7D 87 95 AF
 15 75 DF 2F 15 E9 7E B9 93 A7 25 69 6D 89 B2 BB
 E5 D8 8D 28 91 A5 83 63 C6 F6 87 1F D6 CF 2E FB
 ED 84 F6 D2 CC 50 71 83 65 76 0C 03 E3 FD 44 56
 7C B9 CE E4 BE 7F C0 29 C1 B4 AE 68 88 39 D1 A2
 21 A0 A7 A0 90 EE 8C 23 99 77 22 95 CD 9E 7C 66
 24 CB D1 71 37 12 45 07 A5 4C 1C FC DE CF EB F5
 18 7E CB 92 F2 38 7A F8 0C 15 D7 F6 5A 38 61 39
 C5 40 9A D2 8D 3F C0 80 B6 7F 5B 76 0F EA 78 16
 13 B5 22 AF 59 42 12 3C A9 C4 4B 6E 00 E4 9B 6E
 5A 14 B3 B0 AD E4 26 02 6D 2F A1 0C 63 F4 54 8D
 F2 D3 AE C7 FC 94 32 2E FC DC 22 6F F4 F3 FB CB
 AD 5E A6 3A 56 1B CB 19 81 EB 6A D6 89 CA FE 97
 AA BF C0 E6 04 DF 79 9C AD 51 14 1C AB BA A4 50
 1B F6 B5 84 BE 53 36 2A 3C E0 2C A3 17 DB A5 77
 B0 56 78 A8 74 28 B5 66 C8 38 FB B0 6D 97 CD 22
 D7 0F 3F E1 1C 3F 8F D9 83 9F 04 FF C5 3A AD 3F
 E0 DD 5E FB 7E 52 5F 56 9A FA 28 B5 1F 0B 99 17
 14 89 5C 5D 0E 96 6B 3F 27 0E 8E E7 6D 48 AE D8
 99 F1 9A 54 34 9D F5 6E 28 E9 49 48 C6 0F 48 17
 BD ED A9 3F F2 5F AC AF B0 7D 0D E2 3D AD EF 23
 C5 BA 1E CF 32 EE BB C4 6A 1A 53 C0 9F C3 BE A6
 1B A8 AD B9 13 3F 07 4C B6 70 2B 55 93 4A F1 0F
 03 B0 A0 F3 25 DD E6 3E 87 0A 00 A2 41 91 71 D6
 31 82 83 47 1A 4B FD 68 D0 54 7F E1 03 E8 A6 E1
 3E BE 6D FE 00 A6 69 48 90 3E FF 40 7E 59 D9 51
 07 FC 03 A8 6F 48 59 64 6B 7A D8 62 BD 60 DD 6E
 CD FF BA FA A4 BC D6 61 C4 01 33 81 56 E3 A2 6B
 45 67 32 31 C4 0F C9 50 D3 95 81 B2 A8 93 7E 5E
 C8 40 49 D6 51 BA 47 3E 2E 6F F0 F9 1D B4 6B DE
 C8 AA B6 06 BF 2F 64 BA 3D 08 5B 31 99 76 20 94
 D9 7B 35 14 DC CC EA B7 AD CD A3 89 27 76 AE A8
 58 FA DA 93 4C 1D E6 91 F9 D5 F5 7C 7F 8D 42 50
 F3 56 10 0A 38 36 9D 93 8F 46 CE 13 1E 91 8F CC
 47 DE 89 40 CE 0A D5 B3 29 6D 5A CE A7 81 EC A5
 37 00 A9 32 85 87 DF 12 92 B2 F8 34 A6 76 7F 3E
 C9 5E 4E 05 2D 3B DA DD 27 AA BD 90 8B F8 63 EF
 64 1B B8 BA 40 D5 FA ED 15 1C C7 A7 E7 95 D6 D4
 7D 08 34 44 08 FF 28 55 1B 6C 81 10 65 32 B7 DE
 AB 0E 8B F0 81 64 59 0E 65 3A ED 3D 8F 2C E1 BA
 73 65 A3 A9 79 73 13 CD 28 85 0C 71 69 DA CC 99
 F5 AD D1 47 1F 98 07 5F 26 08 C2 BB 1E 5F E9 32
 02 30 31 67 84 5E 7B 74 08 35 3D FA CD 8F 7D 06
 B6 9C 0C 17 AC 8F 16 99 5D E8 CD 55 60 BC BE 39
 1C C5 05 BF 09 87 7B CE 92 D2 28 6C CE 88 F2 38
 31 6D 24 D6 0E C4 65 C8 91 FF 51 04 39 D1 80 D3
 02 D5 5A 37 1A 1A B0 DF A6 AA EF 61 49 CB CC 39
 92 12 05 90 5D F1 0A B8 B2 56 BD E5 AC 66 2F 42
 05 9B 7B 57 9C 9C BC A3 5F 03 6D C3 D1 EA 32 B8
 1F 1D 1B 17 1B E6 66 E1 CE 04 37 50 CB 51 1B F3
 1C 4B 0B 63 9E 78 B1 3A D9 22 E5 AA 77 8D 1B 68
 9F 77 8A A7 20 A3 8A DC C5 62 C0 4A B1 B2 3B 53
 97 1F B9 FE EB 69 6C 57 A5 07 44 21 5F AE 2E B5
 16 20 3D 06 A6 40 3A 5C DB 42 D5 18 56 E5 0E 76
 7C AE 24 1E C6 EB F3 31 D1 9D 32 B1 90 16 DD 02
 68 54 04 B4 32 1B F2 B1 E5 ED 5F 8D 3F 91 6D BB
 B8 7F 34 EC DF 58 D6 A0 68 CB 25 BD 6F 17 E8 D2
 65 2F 04 04 E0 8A 0C FC B4 F7 27 29 CC 3F 03 2A
 C9 DB 08 24 D9 40 60 E0 84 FF 7D 7B 0A 88 65 3B
 64 52 92 FD 88 F3 12 30 4B 51 38 E9 AF 79 60 19
 1F 1B D6 0F E0 EC 11 49 9A 0A 85 24 D5 90 AB 71
 CF DF DD 45 71 21 16 A8 AC EC B8 25 AB E6 F2 5F
 08 E4 4B 9F 23 D5 11 10 73 24 2B 8C A4 BF 57 81
 D2 3F 3E 2A 05 AD B5 71 F8 0C BA 77 A0 69 1D 8E
 9B 9E FD F0 AF 5F A8 11 B9 B7 A7 3D 70 24 1C 51
 04 3F 79 60 57 15 D5 D5 D2 AE A9 A4 55 E1 6D 5B
 CE 56 D9 C1 2E 9E F3 F7 62 26 CA 4D A0 A0 35 6C
 B0 E8 C4 CE D4 0F C5 4C BE 45 F0 EC 3F AE 44 AD
 0B 23 34 D0 6D 1F 30 11 33 8B 19 B9 AE 76 8B 35
 B7 59 C4 4A D1 AF C9 AD 0D 2C EF 3F D6 F5 AC 33
 6C 4C 9E 2B 73 09 41 7B 52 23 E4 71 D2 EC 36 E0
 48 D0 0F 23 41 53 D3 5A BB 1F B5 66 33 31 33 41
 C5 87 7B DD 4C 7D C9 4F EE 99 14 26 9E 94 D8 0F
 9F CF F6 B4 3F 92 A7 B3 D7 5C F1 5E EC A2 E0 D1
 39 51 5E 18 15 7C 42 9D 76 10 39 FF 8B FD 4C 10
 40 F9 A8 9B C0 78 22 E1 CD 38 7F BD 6F 44 5F 43
 A2 0D A8 06 B1 42 62 7A AC 8A 29 F7 B3 A5 70 EE
 A3 AD 46 E2 17 A2 F2 1C A9 52 75 DD 72 81 76 12
 70 C3 A2 45 5C 51 58 A5 6B 90 7D 4D F1 A6 8F B7
 E3 2E AA 13 07 F4 72 58 47 74 31 CF 78 A2 EE 64
 F3 43 06 C0 9F 5C 57 E6 D8 20 4B 31 B8 39 5F F6
 BB 9F 5E 6F D4 82 07 47 B3 4D 48 16 AB 54 28 73
 B0 3C 81 6B D6 62 C5 30 24 39 6C 57 28 93 63 86
 C8 E5 03 FE 02 A6 4B 63 FF F8 53 9C 65 5B 2D 46
 8C 76 D6 56 F3 40 9C 49 C9 74 6C 00 D8 F5 AA C5
 D2 E8 E4 AB 3A BC 85 7B 96 9B A2 D6 5B 41 94 1C
 37 B8 49 C0 D6 1C 26 93 9F 74 86 4C 73 ED 1A 93
 6A B4 82 7D 68 7E 46 12 C1 9E 1F 77 7C 0B F4 C4
 03 22 EC 47 5E 17 91 FE 2E 3D D3 A5 0A 20 B8 BD
 D8 BB D0 1F 62 18 44 97 FB 65 9D 7C 0B 9E 52 B0
 AD 48 1F 5C 19 75 42 70 83 21 38 D3 26 B9 F0 AD
 6B 17 07 8A 4F BF 8A BE DF 1A DD A3 56 25 61 11
 1B C9 93 2C A8 99 E2 E0 B9 E0 90 48 44 20 C4 CF
 7F BD B0 8E DA 5D 75 AA DF EE D5 3C F4 59 3D 4B
 08 25 95 4A 69 6A 80 13 FD A5 77 50 A9 CB 9B D9
 B0 24 BB 78 2F 74 62 19 BD 29 AE 27 2B B9 37 A9
 3E A3 DF 89 8D B6 24 05 D8 07 CC FD 80 B7 A8 8D
 F0 92 EE E4 AD E1 3B F3 7E A4 37 E4 15 30 0F F5
 84 53 28 70 41 2C 5F 3F 1A DD 89 6F AC 29 9E 2E
 15 EC 2E 7E FD E6 56 39 A9 05 5B EC A9 F1 86 06
 B2 29 3A D7 60 17 1B B6 E5 49 AF 7A D1 0D 52 38
 2E 40 4B 7A 88 BF 9E 25 61 11 B6 08 8F E8 BE 7B
 C6 85 AA 2F 54 EF 27 F5 3B 35 8F 54 3B 55 BD 9E
 E4 48 3E 59 46 29 43 AD 6A 60 0D AA DF 65 5C C1
 A8 71 B1 6F 42 34 C5 62 4C 00 E9 52 47 8E A6 FC
 45 07 80 9D 92 8A 74 B2 D3 7D B2 53 7A 95 F5 25
 BF 14 FB 51 10 66 41 9F DB 22 12 75 54 12 86 CB
 5A 46 B6 42 38 11 EF F7 E2 57 77 37 84 CD 12 E5
 91 0E 5B 07 A6 C3 F4 0D E7 B1 41 31 B7 9A 11 55
 FC 8C 80 91 46 4E 63 42 71 89 56 17 95 80 E5 96
 9F 5E 80 F8 AD F4 39 FD 16 C1 CB 97 82 07 15 F3
 F9 B2 FD 88 FF 62 6B 08 41 2D 9B FA 74 C6 3E B6
 EF A2 6F DA 4C 3F E7 49 95 BB D4 D2 EF BE 57 7E
 EA 95 0E 3C 3D 75 75 18 93 42 06 4A 81 B1 2A BE
 3D CD 1E 4A 40 50 AF DF 47 5B 9E F1 E1 46 F7 9A
 B2 DF 48 97 E1 18 48 51 42 1D 4C FC 54 2A 15 3A
 12 BC F1 F8 C8 C9 9A 12 2D D8 9D 9C D4 F8 11 05
 02 D7 88 40 29 96 94 AE 2A 1A 2F 63 86 07 22 93
 E1 40 B7 A2 D9 7B 74 7C 73 E4 90 70 8E C3 39 93
 22 F6 FE FA A7 E7 65 AC 76 F0 E4 A6 E5 65 D9 35
 EF 29 D0 86 23 E8 B6 14 C1 A5 3D 2B 8A BC EC 39
 67 E8 57 E3 95 34 6F A5 18 7A B9 D4 9F 74 E8 26
 84 C8 D3 7A 80 D5 76 E6 E3 68 7B 93 C5 C6 10 7E
 57 1A C1 C2 CC 52 19 2F 19 E0 EC 2D 27 A4 DE 3A
 2A 59 C4 F9 70 ED 97 95 EC 41 19 EF 11 F0 79 B3
 13 E1 EB 48 1B 17 81 C5 FE 23 A4 1F CF 01 B9 FC
 24 49 D9 DB BE 11 6C 49 74 AF DD B4 16 ED 02 49
 9C 2D 2C 2F FE 8E 4D E3 4A 03 EE 30 CE 00 AB F1
 85 0F EB A8 D0 9A C6 14 E9 C9 81 B6 95 1E 1D 87
 6E D6 38 D0 84 95 42 3D 56 86 31 C3 58 16 E1 93
 5C DE 98 62 5B 43 73 D7 EC F3 FC 02 D1 09 FA 19
 C8 A5 06 B2 09 AC 3A C1 B0 06 B4 7F FE 7D C4 BC
 10 98 36 F2 EE 05 64 DA D4 16 1A 92 5C 7B 0F 5D
 F5 A1 9F 76 BD 71 CF B2 EF F3 89 7E 93 B9 20 1A
 E6 96 B8 FE F4 35 C1 89 EE 4F A7 03 EA 11 AE 47
 59 08 2B D9 B4 CC E8 BD F2 7F 84 4F B0 1A 2D 09
 5B DB 6B 80 E4 23 7A 18 93 FD 41 27 91 0D 9D 20
 FD 56 B3 A4 4A 4B B9 81 13 22 70 B3 26 D3 F9 E0
 08 A0 96 B3 74 F9 21 11 0A 00 08 0B DA 3E 4F 11
 A0 D5 35 7A 62 5A 6F E3 F1 F2 D6 AF 68 11 47 6B
 59 0D 6C EE 5D C0 70 26 F6 2B 52 DD D7 13 3F 9F
 9E B3 F7 AE B6 EC 3E 59 FE 6C EF 72 50 60 62 B3
 9F 5C A2 A9 45 04 A5 B6 F7 02 07 2F 03 E6 BB C7
 8F 99 30 B3 3E FF 80 49 2A 8E 66 86 18 39 25 83
 18 FF 8B 6A 9A 82 CF 93 46 53 92 E4 06 64 AC 6B
 7B 61 07 99 E8 37 C3 55 83 5F F7 2C 9A 83 FF AB
 D3 E9 6F C6 BE E3 81 F7 24 A4 2B DC 8E 67 92 F1
 E6 54 B3 CB 92 2F 29 4D 7F 03 D9 5F F4 37 43 88
 EA EF 9C 86 14 78 47 97 B5 11 DD 45 49 38 9B AE
 B1 05 28 62 48 C0 BE 02 56 62 1D 54 A0 0A CC D0
 D6 9F 19 0A 94 01 66 A9 CA 1B 88 00 C5 7B 5D 63
 BC A0 39 CE E5 3A 6D 1D A9 7A 8B AF 28 82 14 1B
 2F 36 B2 D1 CC 2C AD 9F
* End 788196897 2016484570