* LTspice Encrypted File
* 
* This encrypted file has been supplied by a 3rd
* party vendor that does not wish to publicize
* the technology used to implement this library.
* 
* Permission is granted to use this file for
* simulations but not to reverse engineer its
* contents.
* 
* Begin:
 1D 29 3A 52 25 38 C3 C2 56 1D 49 62 45 51 A7 6B
 60 34 BD 3E DB 95 B8 6D 76 24 57 86 2C E6 BD 25
 A0 D5 F9 2A 52 62 36 8B 2F 07 8D F6 F0 72 E1 D0
 7C 22 8E 56 4A 2E 02 08 13 AB CE EF D1 FE A9 51
 84 2C 93 F1 F0 FA 41 AA 47 39 35 A9 19 A6 B5 9A
 2A 40 E6 D2 8D 33 D6 A1 DC E7 12 82 CC EB 1E 98
 37 25 D5 5B 45 FA B2 7F 8F C8 4F 35 C6 3C C6 29
 8E 9D 27 2B EF 85 0D 1D 1D E1 C2 22 7D FA 30 B2
 93 C3 7E 02 AA 45 B3 FC 4F 7E 18 16 1C F8 E1 DF
 1C 88 E1 14 0E EC 72 2C 9C 91 19 84 81 AD 04 E4
 6A E7 4E 5B EA 7F 64 15 57 E0 71 40 FE 6E B3 DE
 A5 D7 23 57 2A 53 76 35 3B 2C 93 3D 8C C8 27 48
 36 DE 31 0E F3 E7 85 3D CA 8F B3 D5 40 CC 03 9C
 7A 31 EF 2E 22 E5 40 D1 29 F5 63 12 19 15 C7 1F
 92 1F 4E 33 FA E8 9B 7D 0B 14 1A B9 77 AA 96 DD
 3E 5B 42 3C 41 9F 42 0E 43 40 74 6E 62 CE 59 F8
 E7 C3 E3 88 35 BC DD 16 43 CD 42 E1 A2 28 96 B7
 48 17 24 6F 2C 4E 6C AC 49 D9 74 8C 89 5D F1 10
 26 8D 98 F8 54 AB 61 C3 8C 34 90 8B 62 B0 F3 7C
 51 D6 40 1A C8 0F 38 7B 73 F3 8C 4F C5 31 6D DA
 B1 67 F7 FA 84 EB E1 E2 5F 24 1D 20 16 C7 11 D1
 A3 61 E5 80 CA F9 02 38 6E 97 83 04 9A D5 5D 63
 DD 5F 22 BA B3 9D 58 17 AE 89 E1 B1 8C E1 85 10
 8F 8B 15 59 44 C4 A9 EE 97 89 44 96 F1 9D 87 E5
 58 5D E3 50 FD 29 16 B4 CD C6 DB 32 13 FC F9 6B
 E7 FE AB 43 8B EB 62 9E D9 B3 B8 D2 F4 78 9E 2A
 8B 70 6B 9B 4C B3 34 44 68 83 3D 84 79 75 88 0D
 F0 1C A4 C8 A4 1C F2 F3 4F 69 5A BA F5 66 88 59
 51 0B CC 70 8E E9 3B 80 30 DA 7A D8 98 70 C9 3F
 EC 21 AF B7 B2 07 26 BC 7A 12 4A 73 E7 A5 07 87
 58 5F DB 1D 55 C2 8C 85 20 6B E5 1B 52 8C 81 B6
 D9 12 0D 13 C2 E6 DD 92 B2 7E DE 3B BB E9 9A 8F
 EE 9A E5 BB 84 FC 0C CE 16 83 A6 40 33 AE 22 4B
 38 F1 32 4E 3D 28 1A B3 90 32 2F FD 37 E7 70 61
 A3 A2 BB 93 B7 F1 96 F6 EE 6E 67 D2 45 16 87 DD
 17 8C 70 6E F0 EE 18 49 BC 67 DF 3C FA 8D 0E EC
 27 B3 73 66 45 19 37 30 36 AD EA 0A C1 D5 7C 42
 1B BF 3B 56 56 F7 10 8F 7A 24 23 AE 3F 48 48 C3
 37 35 91 FD 1F 10 98 8F E1 01 28 6A 8D AF A2 20
 C4 11 DB 26 D9 E7 36 D8 E5 85 33 C4 0F 89 2A 25
 E0 13 9D A1 1C 0D FD A9 A8 1C 40 A0 E9 43 FB 5F
 CF DE C1 74 56 19 DE 9D 79 26 A3 3C A3 51 1D A8
 01 38 D0 1F 55 A7 7D 5D 48 93 00 69 63 16 7E A6
 E5 EF 69 8D B6 01 7A 0C 2D 5E E8 F1 6C A7 82 2B
 47 B0 84 DE E1 CD E2 F5 55 CC D5 4E 52 3B 3D EF
 A2 F5 3A 21 1E E1 E7 68 94 15 1A FD 18 37 54 27
 83 5A 79 F4 17 34 07 CA B9 E3 64 07 00 53 F0 32
 72 6C 38 3C AE FC BA A8 22 42 31 32 54 42 32 AB
 EF 55 3F 8A 50 CE 21 E9 17 4A CE 03 74 46 52 E2
 B9 9D 43 63 01 26 D9 9E 55 E1 C8 4F D3 43 56 89
 56 ED 46 6C F5 E8 27 05 DB 3A A5 27 52 02 33 15
 E1 6D DC D8 3E BF 40 68 37 4B 87 82 81 C8 CF 9C
 43 E7 20 05 E0 1C BA E8 28 14 5B DF A2 36 11 56
 3F DB 1F 93 80 31 53 EE 2B 05 B8 1A E8 F5 18 48
 5D D4 41 77 58 84 DE 81 37 B9 78 28 41 93 1F 9C
 DA 72 E1 D8 DA 4C 8F 4C 76 98 84 9B 03 E2 92 F8
 07 82 3A F1 5A E1 F6 94 54 D5 2F DF 77 78 7B 06
 0F 97 94 B9 C8 05 9F BD 99 12 A2 58 41 D2 BD D3
 97 08 1A 63 06 DD 9D 22 89 F8 04 90 F0 C4 99 36
 4B EB D9 0C 62 0D 9A 25 45 57 45 9D BC 37 4F 81
 3B C4 AB 93 A5 3F 34 39 5C C2 B5 03 E6 31 24 B1
 9B FB 9A E8 28 7C 9C 3E 60 19 8B 7E 5E 02 A1 18
 53 9F 04 08 67 C3 B0 55 4F D8 89 34 FF 29 B5 83
 23 7C 11 8D 1E B3 2F 34 79 2D BC 3C 19 E1 90 BE
 FB 09 12 84 70 3E 12 7D 61 12 6B 52 CA 46 C9 54
 BD 5E 20 15 70 15 4C 4E 72 9C 61 0C 94 D2 2B 49
 F1 38 AF 63 92 52 33 AE 50 C1 57 97 EE 2B 2D FC
 56 1E 20 C7 DC 33 9C B3 7B 3C 0B 09 E6 43 89 EB
 CB 47 E3 E8 C3 17 EB FB 9C 34 97 3B 13 62 45 06
 A3 7E D6 91 99 BB D2 09 B0 EE 9F B1 28 10 98 33
 38 7C 1A A4 CC 1D 52 1E 2B 5C B9 92 F6 2C AE 85
 49 80 20 1D 97 7C BA 2D 44 42 AA 34 0B D2 B4 D5
 42 7A 73 2F 86 A2 F5 7E F0 C8 1F CB 6C 7D B5 0A
 87 7B 50 85 01 D4 88 81 41 9E 14 6D 09 57 59 E1
 B9 6D 50 F5 EF F9 A8 E0 F4 9F 35 A4 88 46 51 5E
 A3 98 72 E3 DB A4 0E 21 A2 C6 55 1A 7E 65 04 11
 AE CD 0D ED C1 93 2E CF A7 4D 4C 38 47 7E 4D 1F
 D9 C4 7B BF 3A 31 73 4B 64 D9 1B 96 7B E6 D3 BB
 A1 E7 4C 52 28 E2 7B 66 98 F1 2A C1 49 61 26 3F
 4F A9 DF 38 5D 5C DE B9 C0 C9 30 A6 D8 37 4C 34
 FC 29 1D 18 DA 4F 91 D3 E1 F5 EC 05 B9 8B 87 E4
 25 45 68 87 CC 78 93 8E 39 B9 D5 95 89 BF DD 58
 B2 A4 81 5A 97 42 92 DF AA 37 4B B6 3E 13 F4 49
 B1 1E 17 C4 2F C3 F2 E8 CF 34 10 5C 9C 30 3F 61
 9C 22 42 C5 D5 DE 26 F1 4C 80 3D 61 9E 8A 20 78
 B2 A0 46 42 F7 39 51 4C 9E CA AE F1 FD 26 E2 9F
 68 F0 DD AC 24 19 96 16 07 98 12 2B FD 65 5D 8D
 3A 40 03 27 B3 25 60 7D A8 03 07 ED 01 BE 37 42
 8A AB F5 BC 5E D9 30 B6 33 A5 42 8A 3B C2 97 B8
 5F 76 1F 83 24 E2 3A C6 7F 27 83 8B 07 06 A3 E0
 2F 68 23 CC 04 B3 7F BC 0A 62 74 49 89 37 4E AC
 93 39 C4 E6 87 6C 7B 64 C9 FF 6D 2A 0E E8 B2 B8
 85 00 FB 59 4E 1A 64 8B 97 B2 16 56 F1 74 9E 36
 06 C1 14 64 08 28 31 F5 C9 CF C6 09 93 84 02 9F
 F8 01 1C 08 15 42 3D 6E B2 AB 1A 7E FC 67 2C 3E
 FF E3 14 EF ED 2B 8E 20 FB C3 C4 5F C5 90 56 E4
 9C 53 3C E0 7B 8A 48 F7 96 E4 AE 8B AF CD 35 9D
 85 9F 8C 38 8D 0E 14 44 95 B5 36 33 0B 65 A1 40
 BC 7C 21 E2 90 B4 56 FF 71 07 20 8E 14 03 59 8C
 78 C2 80 44 86 6A 66 D9 76 13 68 04 EF 82 6C 75
 C9 7F F4 FF 21 F3 90 4B B7 99 39 8C B5 ED 3A 64
 A7 DC 12 73 AB C9 47 AA BA 9A F1 3F 85 64 B5 C7
 DD F1 61 AE 82 35 8A D1 E8 92 FB 4A 2F 56 7A 18
 0C 26 FF 45 9A 58 70 76 28 09 8D 03 D2 8F FC CE
 09 69 A5 36 4F FB DB 54 4F E3 71 6F FD 96 1C C6
 F3 06 A7 CD AA 36 F0 A1 E6 42 6F E1 DB 9B 2C 03
 01 6E 3C 13 38 43 D4 CE 1F BB 72 B3 14 7E 35 60
 20 0A B2 EF BB 1F 96 6E 5D 93 5B 58 68 7A F1 D6
 97 9C 57 1B 4B 70 DD 82 49 0E 41 87 A7 F2 E4 89
 03 6C 90 C5 D7 AD 8E 75 9A AC C1 1D 83 36 08 65
 6B 61 2D 70 E2 9F 8C D5 00 F4 72 0B C6 C2 DD D2
 CD 88 D9 71 B4 A6 8F FB F6 00 F0 F0 3C 83 DD BE
 41 35 63 20 90 95 A4 AB 44 D0 04 88 E4 48 DF 23
 7E CB 29 40 B8 44 D1 64 C6 91 F5 08 4B A5 70 52
 07 7D 25 8A 73 6C 72 C3 0B B7 31 6E BF E1 FE 25
 BC 14 89 5F C1 57 6D C3 BE D9 28 C8 3D 1B A4 5D
 9F 32 CD 0A 84 9D 0B FC BD BC 4A A5 3A AF F3 EA
 FC FA A2 DD D9 BA 96 B4 A8 0C B0 CB DC AA 87 A0
 89 90 96 5C CB DB C9 12 CA 4F A6 A7 D9 75 24 E5
 DF EB A4 86 95 25 E7 B8 77 3B B7 64 7C BE B9 50
 27 58 C1 4E DB 06 B7 A1 55 9D 14 1C C3 8E 51 FC
 46 03 C2 DA 8E 01 2C CD 4B 7D 6A 93 DC 98 EF 7D
 31 0B 22 B7 8F 23 62 B1 FA 70 C2 62 6B 4F A0 5A
 B6 48 BB D7 A4 BF 03 5B 62 65 E5 F2 C9 D0 72 6C
 4C 6E 36 8D CB 12 BD 64 9C 9C 5E 0E 3F 35 1D B0
 A1 2D 6A 33 C8 63 4F A1 9F CB D1 53 F5 5F A5 E3
 B2 D3 07 BA 28 B4 C3 F5 A9 6F 36 5D 94 FA CD EA
 5A 3C 7B AC 97 A2 C4 E9 C7 21 4B 1E 52 D0 21 9A
 DE 4A BB 4F 59 0A 48 13 D2 B2 F6 BB 57 BA 7F D2
 0A AF B4 A5 CD E8 31 23 2F 6F FA 7D 86 70 DF 0C
 B4 60 E7 1F 87 60 78 38 7A 9A E2 B6 94 47 95 8E
 70 B1 E7 CF 86 2D 8F 84 EC 41 63 7F 48 19 58 9E
 B9 A1 57 A8 8C 67 82 BE B8 4E 12 71 AD 31 BD 51
 5B 77 27 11 1E C0 AA DA EE FA E2 47 99 DE 7D 04
 92 BA D7 F2 72 19 AD DA 55 20 87 FB A4 B2 43 0C
 2C 93 26 42 47 D3 F6 71 0D 45 E3 05 08 2E AF 3F
 F8 15 27 F3 9C E6 56 4E E7 1B 7E F1 D0 C6 87 68
 4B 00 E3 78 9C F5 7F CF B4 00 66 36 A3 D8 23 BF
 07 46 AA 5F E2 25 CE 65 2F F7 49 A1 EB BC FE 87
 F7 0C EC 55 98 D0 26 23 50 BB E7 0A 03 74 7D 4F
 4A 81 4A 0F 5D C8 EC 46 8C 47 AD 4F 6A 90 22 1D
 30 9F 7D 5F 27 A2 9E 3C 4A DB 27 2D DD AF 73 F5
 ED 70 64 76 F2 0E 45 DC 7F 3F 74 4F 54 ED 74 0E
 E2 84 10 CB B3 42 A3 05 BE 1F A3 F7 C3 E7 41 4E
 BC 95 CA 73 C4 C8 70 E5 01 10 63 4E 3C 37 A8 2A
 17 E1 F3 45 FB AF 1C 1F 87 B7 45 05 A9 63 7B A2
 79 8D 47 9B 48 1F BF 14 2F 82 9B 58 EA E2 E4 57
 72 F7 35 14 95 F7 4D 8B D5 FC 92 43 1D F6 21 AD
 DF C5 08 64 67 29 21 46 E1 A1 C8 9F 77 AB 6B 86
 02 49 8A 03 1D 7E 25 B0 F9 EE 25 A7 93 66 F0 ED
 31 20 05 D1 08 E7 7A A1 4D 38 99 31 BF D2 19 A2
 60 E4 16 18 94 CE 33 6A CA 4E CC BD EC 6B 8B CE
 CB 7C 9A 4D 99 82 C2 8B 3F FF 19 57 5D 77 C6 B1
 23 A1 BF 9B 55 43 A8 A1 44 D8 9F C6 FF 77 86 89
 64 D4 8C 5B A1 AE C4 8D 9E 15 C0 3B 2D 31 77 39
 61 BF F4 BE 56 1F 41 05 A3 B8 2E 6C 2D B7 D7 86
 41 46 2F 8B EC 6F 25 E6 37 B6 89 6E 5E E3 E4 35
 E2 E7 CB CB 97 AB E2 F8 92 A3 31 BB 30 3D 56 CB
 B5 21 9C C2 1F FA DF 94 DF A3 82 D7 57 62 81 01
 90 9E 10 E4 1A 44 F2 57 E5 B8 10 24 FF 3F DB 6D
 69 A3 46 F1 A8 43 84 0A 55 FB ED CC 50 20 63 C1
 2A E9 91 5E 09 9C 3D 34 A6 01 29 F4 74 7E 85 4D
 EB 6D BB 56 AB C3 48 12 1D 8D 22 11 FE BA 6A 24
 BE E6 A2 A1 3A 7E B2 72 81 9B B7 92 9B FC AB AA
 32 61 61 26 C3 BF CD D6 A4 A9 A8 C7 B7 18 24 FB
 AB 99 5A 26 C7 BA 5A A7 02 A2 59 42 36 7F FB 38
 F8 86 61 77 74 77 09 A2 63 2F 16 12 9D C0 DB FC
 25 14 A9 38 4A F6 58 46 67 71 E0 3E BF 90 DE A6
 77 B9 A4 18 E5 CF FA 9C A0 9A 20 EA 10 3C 7A D2
 1D E2 15 27 1F 6F 2D 17 5F 22 9A 0B 08 A8 52 F0
 7C 4A CF 88 95 94 07 70 79 69 15 D8 50 4F B9 5E
 31 DD 8B 5E 69 47 D5 11 82 2D 0C 6A A4 55 4F 88
 DF 2F A2 A1 9C D0 D5 45 18 EA 53 92 42 A4 AC 78
 12 22 7A A0 A6 0D 35 34 CC 26 4A 29 8C 70 6E 82
 0A DA C3 1A 29 03 8F 6D 29 AA 28 93 CD CF 55 F4
 ED DA 2D 5C 90 20 04 F5 D9 EA D6 08 AD 6F BF D1
 3B 2D 8C BA B7 BF 3D 3B 5A BD 39 23 99 62 B3 3C
 BE 5E 3E 98 3A 76 98 FA EA B5 54 6F 2C 76 07 1A
 FC A8 C7 09 6E FE 07 2A D9 F2 03 FF DA 9E 34 E7
 F4 BB BA 82 B8 61 58 44 D8 9B B1 52 60 AD D8 15
 CF B7 EE 9D 63 8C 5F FB D5 76 CF 52 9F 04 D2 24
 AB D6 A2 45 67 FD 3E 26 3B CC F3 B9 DD 4D FA 72
 0F 5F DF 17 05 56 A7 20 43 58 0F 63 8E B4 84 C0
 0D A1 FA 28 0B 10 B9 90 02 28 E4 17 F0 2F B6 04
 87 D9 50 01 6C A2 9A F9 0F BB 42 8D 9E FC 28 42
 41 4B 21 04 69 5A AE 44 C1 FE 9B A7 60 B9 2B 19
 A3 55 29 AB A9 6F 14 D2 0A EC 1A 14 A5 56 82 AC
 E6 85 FC 4B 5C 47 4C 10 56 D7 1E FF 41 5E AB D4
 6F A8 7A 21 11 AE EE BA 62 18 CE 74 78 C3 86 BE
 3A E7 CA 10 42 7A 74 F0 FC 25 C0 0A EF E7 04 8C
 9D 70 3D 22 64 F2 99 32 74 6B 89 E4 27 86 FA 5F
 27 9E A2 27 F3 5F FF 45 18 A7 14 55 B7 CC 8C 64
 65 3A FC 13 4D 8D DA 0C D8 FF E6 65 7C 5C 8D E7
 A8 EA EF 16 7E 21 72 71 9C 7A FD 2B FA 12 23 E1
 2F EC D9 31 90 99 C6 3F BE 46 F5 2D 7A F5 F6 A4
 1B 48 5B 36 9F 8D 3F 3E 91 B8 C8 23 5C C2 33 0D
 67 11 81 53 A0 5C 99 2A 49 CB 7E 31 97 3C 60 29
 F8 91 95 00 35 23 B7 06 2A 4A 4D 50 69 05 A4 62
 87 91 9A 7A 49 AA F1 2A C6 DD 11 C9 E2 E1 64 9E
 DC 8E B4 D3 D8 06 B9 C1 AB E8 4C 4A 67 2B 57 4B
 19 20 02 BC 42 16 E9 67 F4 A6 97 7F 3C C4 A3 90
 A8 F5 57 D2 E4 31 8B A0 39 28 71 F7 3E E6 CE A6
 90 17 18 6F 25 9C 6A 80 F7 1D 8F E5 4B 2E E1 D8
 95 77 98 58 DC D2 FD 67 EC 04 14 CF 29 2C A9 8F
 FE E6 D2 5B 40 FD 3D 98 B0 53 55 6D CB 5C 6F 10
 0E 4A CF 12 9B 61 ED 1A 3A 79 BE DD F4 D7 97 37
 F0 6A 19 22 FE 4C 04 C9 6F 61 F4 86 33 30 52 BE
 EE 9D 8F 6D 64 8E 59 53 7B BA 15 BF 43 40 F3 1B
 51 F9 D8 73 16 1E 07 E5 5F C3 43 9E FB DA 87 ED
 91 B2 E1 A8 49 5E E2 20 29 BF AC D2 17 86 D7 D9
 EB ED 5A 42 AD 3F 7F 73 1B A7 65 39 8D 8A 22 79
 4D AF 31 3E 8C A3 62 34 4D 5E 7A 56 1F B2 AC A9
 DD B4 33 3A 35 62 DD B6 CB B4 82 3E 76 41 3E 29
 D4 DC E6 2F 2E 17 20 6F 08 C9 9C 8D 61 67 F9 AF
 3A 3D F6 81 D0 0D 4E 14 0B 13 14 7B 4A E1 46 9F
 7B 5E 23 32 FF 7E EC C5 0A 51 D6 FC 2D 15 3C 0C
 13 32 59 A0 3B 5A E7 28 80 AC 68 57 DA 1E C8 7B
 26 5B 1A 7E 15 ED FF A4 32 21 09 9E 87 F6 63 2E
 3A 97 92 55 D9 03 3A 48 A1 6D F9 41 CB 66 7D 38
 BA BC BF 04 3A E1 42 E2 08 0B 4F 2A A7 18 3C 77
 FA 43 CA 2A 58 FE F2 55 B6 0D 2A 04 D9 E8 63 83
 C5 8A EA C4 E7 33 66 8A 19 D1 7B 2E BA F3 40 01
 1D 86 DB BE AC 59 47 8D B4 EE D3 04 FE 89 FD 4B
 1F 35 7B EE 90 48 5B 5B D0 2B D6 2E 03 9E A5 DD
 EA 55 0F 31 09 BE 27 13 D2 E4 26 AC 5D 64 2C 41
 07 EF 1B 91 61 41 15 26 5C D5 5F 3A CA 9D CC 3D
 7A 58 C3 D7 59 A9 D3 81 00 6A 39 CB 5F 81 3D 59
 DF 20 55 A8 A8 8A 61 95 4B 01 18 4A F1 B8 A8 73
 C4 FB 65 96 0B 44 91 DE 2D F9 13 FC 59 ED 48 42
 31 D0 C4 38 57 6C 5F 7B 58 7F DD 04 29 FB B7 2B
 ED A3 D1 2C 02 22 B0 E5 FD 76 7E E5 EE F0 88 72
 50 18 37 A1 6D BE B0 B1 CF A4 B9 3A 9E B6 02 84
 91 18 7A E8 54 53 B7 39 D7 2C 22 D0 08 74 E8 94
 D4 DE BA 06 16 0C 1B 59 8E F2 11 79 68 06 44 33
 3D 70 7D DA 39 F2 24 A3 36 B4 D4 94 5F C5 25 F2
 69 0C 4C 7A D0 57 5E BC 05 8C 53 19 92 5E C3 04
 85 A7 07 44 FF CA 4F E3 12 73 84 6E 52 53 BB 80
 BF D3 D0 E6 24 92 BB 46 93 D0 8D 9A F1 59 44 B1
 AA D0 66 F3 8B 1A C1 D7 7C 68 70 9D 09 13 64 FE
 08 3B EF 57 40 21 A7 AE 8F D7 C5 38 03 48 5A 9E
 0A 0C D2 51 7F 28 A5 1C 8A A1 5E 95 3F 40 BA 7A
 B2 13 26 5C E9 65 49 75 79 9D 57 A1 C2 29 C4 82
 66 54 7A B2 CB AE BE F9 DC 7E F4 22 6B 2C 7E BB
 F4 50 E0 B6 96 40 5B 6E 8A 6F DA 22 A2 A1 71 C0
 6D 2D 80 F3 8A 7A 21 54 07 81 1C 69 07 7E 69 3D
 31 59 86 CA 55 81 77 8F 08 BD F5 2A 78 DC 90 C6
 5A 75 50 B1 FB CE 6E AF 19 AD B5 DA E3 7A A8 D7
 11 FD 65 F2 A0 19 8C 35 47 E7 4C 82 D7 EE 52 DE
 DF 6F 44 8F 76 D0 05 FF 2D 88 59 0B 75 0C B6 B5
 09 E9 CA 28 46 F7 14 56 4D 30 37 62 16 FB 53 92
 18 EA 80 62 97 F0 D2 B2 24 73 E2 76 12 61 48 0B
 46 D5 F1 61 E0 02 EF B6 1A 33 0E B5 27 84 26 4B
 18 9E 57 5F DB 19 4F DC 62 D1 26 D5 0E 02 47 40
 9B 5A 82 17 20 DC 75 C9 C1 FF 90 AB 0F 7F DE E4
 9A 4A 52 1E 67 5A CF 04 7D BC 1F 83 07 07 89 92
 35 BE 9B A3 94 59 B3 FA BA 5E 5A 4E 34 4A 21 58
 1E 0E 80 26 95 6D 1E AD 18 E9 7A B9 3B 88 44 8F
 A0 A3 2B B5 0F 90 37 0C F4 CC 8C 63 E7 01 28 6F
 1D 1D 88 2C DD 1F 20 DB D0 49 EE CF B0 7D 7C C4
 0B 71 AE 53 9C E5 C2 F7 29 E8 F9 A9 A4 85 AA 32
 A0 47 91 E8 EA B3 EB EF F2 2D 55 B2 C3 7A AC 30
 BB DC BA 6C 86 8B DB 24 83 6A A1 C3 0B 8E 18 C8
 30 9D 89 EA B1 6C 03 A8 82 7D 8E 9F E5 BE 21 98
 07 B7 8A 79 62 39 A6 BB 9A 3E 29 C2 4E 54 29 1E
 49 1D 05 10 3C 8E C1 8D 35 5C 4F 52 DC C8 91 9A
 AF F1 FB 82 BF 9F EF 9F 36 A9 8E B6 4E 1A 42 3B
 7F D4 88 90 76 BC DF 12 C2 A1 E1 75 99 DA FE DE
 6E 93 41 AC DC 74 8D 7B DC 7F 0B 61 AC 17 5A 76
 0C 94 A3 03 19 89 03 B6 E4 38 E2 33 2C E3 33 69
 30 7E B0 89 C1 8B CD F4 BA 24 D2 98 BD DE 9D 9F
 B9 62 67 60 DE D3 1B 86 86 D5 BC 90 55 BF 4C EB
 61 A5 52 82 D8 2A 14 AC DD 67 8A 5D 6A B4 01 77
 D6 34 5A 88 CF E4 48 EA 19 94 7C C8 99 29 0D 7B
 AA A5 96 5A 22 BE E2 FE 33 0E BA 19 18 5E 6C 7F
 A3 57 26 87 3D 0E 03 6A 43 A1 0E 0A 60 59 6F 94
 5C DD 96 28 DE 63 9F C4 28 47 35 07 7B 44 14 EE
 B8 89 A5 01 02 40 C5 8C 89 8A 33 11 D1 BB 3B 20
 C6 5F EB 0A 71 1A 50 C7 49 63 6C D3 58 2D 71 86
 2E FD 40 59 E3 74 F2 0F AA 79 5F 33 11 EF 7C CC
 9D C3 C2 84 F0 BE 53 83 24 C3 5D AE C0 96 37 47
 43 79 C2 57 36 68 0A 7A 0D 4B 3B D2 74 32 58 A9
 64 EE 42 FB 63 10 69 AA 2A 3D 15 CB A2 A5 63 4E
 C7 8A 9E 7B 41 B6 FB 85 F4 03 00 F7 F7 C5 B3 B9
 DE 18 36 02 A0 15 FE 7A A7 F9 A9 BF B2 B8 7C 53
 6C 31 3E EE 56 A0 EB C2 A7 52 71 B6 1A E6 72 2C
 56 69 AE 31 FF E9 0A DF 7E 20 14 82 92 69 DF 40
 D7 B6 11 07 91 77 92 99 E2 12 9F 8D F1 E2 AB 4E
 DB 67 23 8C 48 E0 4D 3B B9 C4 DA C6 41 82 4E 67
 51 DB D9 45 B8 95 3B FA 4D 65 B3 3D 90 95 EE 6B
 BE 3D 84 74 A4 C4 B6 97 19 8F A3 EB B7 F4 70 67
 DD D4 AD A1 5A E4 C4 82 AC B3 F0 3A 6E 86 79 E7
 4F A1 30 3A 43 35 FB A5 A2 B2 81 E6 38 FB B0 F3
 5D 33 D6 E0 B1 DA 8B E1 E1 CF BB 33 E9 3C CE 83
 6E 15 13 06 F0 AE DD 6C 03 A6 0F C0 EB CB 9A 35
 39 3D 5B AC 57 CA B3 82 73 0E 65 8D 11 2A 88 48
 D7 B2 80 47 31 D3 F0 A8 92 E7 9A 21 C2 B6 12 A5
 EC 72 55 F4 CE F0 D4 13 3E 5C 51 86 42 49 D4 C1
 9D 92 2F FA D8 09 F6 1B D9 34 50 E4 8D C8 54 67
 80 02 6C 01 6D 77 15 0A EF 50 F3 96 14 7E BA A6
 B1 A1 5D 73 FF E2 58 47 F2 2E 9B 4A EE 95 A7 F7
 FD 5D DF 96 31 B1 95 FF 85 AB 48 07 B7 84 0C 26
 00 B7 68 E1 E1 20 6E EA EB 2C 68 69 8E A0 29 A2
 74 86 E3 99 DB FC 4A DE 20 1B 1D 6C F2 84 37 EE
 80 DE BE 6B 88 0F 78 79 BC 5E 26 0B 83 57 15 3F
 2B 16 C8 7E EF 7B 07 C0 9A 44 0E 1C 95 D7 66 89
 3A E0 0D 4D E3 F0 71 74 CF 16 0E E8 09 6C A3 A0
 47 43 8A 57 3F A0 C7 C2 26 AE 12 2A 21 7A E3 09
 B4 8F B8 9B EC 61 0C 4B B9 8E B3 2E 40 AD 2B 88
 6C 42 ED AC E8 6A 36 B8 93 CB 74 A3 90 77 E1 20
 1D E3 56 7D F6 C0 0E 64 6B D0 CF 85 96 6B CC 4F
 42 A5 8D 77 9B B0 B6 DB 3D E9 EF 26 F6 22 9C 72
 03 BB 76 9B 2B 5C FF 55 84 AC 5F 1C D9 EB 24 44
 03 18 3B CA 38 1E 79 F2 C1 18 68 9C D6 DC 2D D5
 98 AC F9 9E D6 30 6C C3 2B 38 2F F6 7B 52 F6 FB
 5D 78 C7 A8 2A 91 9A 42 F2 0D 71 52 81 63 61 BC
 BF 82 9A B9 BA 11 DC CD 54 38 F7 BB FC AF 00 FE
 9A 6A A1 28 00 BC 77 99 9C 41 7E 20 4E AC 04 F6
 7F B2 F3 8F AF D6 94 60 60 6F 6C 5A A2 3B FD CA
 79 4A 93 3A D0 4C 8A 9E 20 C2 78 28 DE 96 9B 02
 E2 44 9E F4 9F 41 F4 38 E7 6F 0A FE C4 4D DD 3D
 AA A0 D8 69 13 13 4E 15 D6 1B 0A 24 69 15 16 26
 4F 83 98 2D FB 48 EE 44 E7 5C 2B CD 10 57 D3 A7
 42 AB 5D 91 E0 60 E5 6A 1F 5A 42 6F C6 1F F5 FC
 68 FA 51 5A C9 62 23 02 14 A9 53 9F 34 76 98 CF
 FD 34 34 F7 8D 3C DA 99 13 5A 20 8C BF 20 14 62
 BF 9E 94 75 68 2F A5 EF 46 B0 86 00 5C 46 38 09
 DB AF 26 AF 3C 5B 5D 6B BA 4A DA 8B 8D 90 EF 9B
 0B 42 36 B0 24 55 50 1A 07 8F AB E9 32 E2 89 C9
 B7 1B 77 E1 57 CB 1C D9 28 B8 DB E3 27 F1 FA A8
 25 EA 45 95 49 5F A2 04 81 19 26 EC 8C 56 8E 3D
 D4 19 3F A2 30 3F 2E 34 06 A9 C7 7F 37 61 BD DE
 82 1E 1F 81 24 2B 60 7F 7F 89 1E F2 ED 08 D6 D0
 32 5B ED 0A 02 D9 54 9D D5 2A 51 22 7B 02 96 1F
 4E C4 AA 1E 78 A8 65 6D 66 0C 7A FC A1 8F 84 BB
 BF D8 68 E4 58 14 BF 9F 82 41 AF 8C 6D 12 37 48
 2B 04 44 DE 93 80 A3 86 22 A5 A6 38 01 0F EA D5
 B8 90 CD FE 1B 8B 14 F2 82 2B EE 5A 38 D8 1D 2D
 6B F8 21 18 C6 F0 48 AD 12 EF C9 29 AF FC D3 6B
 1C C1 99 C3 65 95 3E 5C 32 28 D7 52 CE D7 25 21
 12 5E 08 0B 96 E7 65 9D 9B 4E B0 85 AB 3C 19 C6
 63 11 CB 13 4E 67 81 4E CD C9 A5 2B F5 C7 21 15
 62 AB 26 70 1A D2 1E 65 7C 52 AD 87 18 27 83 27
 97 15 5F 80 7D 62 9B 0E A5 AE 54 E7 61 60 D5 DA
 2A 55 90 AD 47 22 E6 AF EC 36 39 9B 3D 10 0E 1D
 21 9F F1 B4 1C 1F B5 AF 9F 4B D4 43 72 3E E4 FD
 2B E0 91 9D 3A 42 42 9F 54 B9 F3 9A 52 39 89 84
 44 7F 28 92 D2 6F 23 D9 76 D5 46 56 B6 48 47 1F
 05 67 3A AA 9F 4A B2 02 5F 54 0D 19 E7 45 93 FD
 9D DA 20 2F 52 C4 AA 4A EB 03 D3 2F C6 73 AC 16
 23 4E 8F 9E 40 1F 3B 25 DE 6D 84 6C 28 CE 21 90
 BC C5 14 12 B9 FE B3 A4 8A F8 0A B0 B2 C5 33 2C
 BE F5 F4 1D 1E 27 6C E8 F2 41 92 31 C6 89 78 08
 43 92 93 F6 8A C2 EA F8 81 42 92 FC FA 32 1B 12
 7D F5 D6 4F AB 2E A2 37 97 CA 1E 90 A3 7B 23 81
 EA 3D 72 48 9C 12 0A 20 39 E9 36 CB A0 E7 9E 20
 B1 FB 15 85 E0 F8 85 3E 01 27 9C 2F AB 9F BB 7B
 96 3C 5E 51 02 01 44 4F 2B 1D 99 05 31 D5 2B 4A
 0B 35 D4 A6 17 34 00 E7 A7 76 4A EE B1 47 F4 1F
 E5 BC 74 86 EE 21 3A 23 73 6D 2E B7 E4 68 46 07
 34 B7 6E A0 68 0A 56 C4 73 43 6F E9 81 DB 7B 95
 9A A8 18 23 2F F2 9D 59 C4 FE 30 5A 8F B4 42 FC
 10 6C 2E 42 CD FD 04 CE E2 8B 08 C3 0F 34 63 A6
 68 00 AD FB 59 4D 75 4A CC 7C 8A E5 D6 99 18 78
 70 B0 3E 75 8E A7 36 4E 64 2E 0E FA 1B C9 F3 C0
 C6 15 FC 30 1D DE 1B A4 00 03 A5 BE E1 C8 D2 0A
 A5 D3 37 06 E2 99 E4 89 8D 6E EB A2 0A 52 D2 D5
 7C AB 58 FC 3E 38 E3 43 2D 7D BC DF 77 C7 1F F9
 54 3D 57 02 A0 72 0A F6 0F 09 41 C8 3E 5D FE 65
 52 19 A6 E9 DB 2A AE 2C 41 92 B8 99 40 A9 1F 1F
 D7 9F 59 05 ED 71 3A BB 16 08 8D B1 F6 D3 CE 2C
 AF FA DE 28 3C 6C 05 11 84 C9 52 AB 68 01 FB 32
 3D AD 12 A9 10 46 2D F4 7B 38 5B EB B1 7E 55 39
 4C F5 25 3A 0F F7 F1 EC 0A 85 7B 5F 11 31 AC 93
 F4 62 4C 77 5D 64 7D EC BF 8A D0 BE 6B B5 72 56
 F0 4B 86 6C 63 1B 89 EC FB C7 62 20 53 EF 2D 10
 A8 B7 73 75 2E 76 5E DD 45 49 02 D2 BA B9 96 19
 44 08 87 FC 7B 74 88 4C 0F 6E 9D 31 8E 3D C6 25
 BF 07 7B 23 B4 36 D0 84 96 12 E8 A7 2C F1 47 9B
 1B 09 78 D8 D0 1C 8B 2C 92 54 69 EB D9 D7 10 70
 C5 66 26 59 4A 32 48 07 2D FE 5B 0A 0E DF 80 6B
 F6 FD AA 83 20 7E 6C A2 4C 3E E5 61 66 50 83 9A
 E5 E8 21 B9 6A 98 C9 8C 4E 4A 4C 35 BA A2 8D A2
 65 91 5A BA 75 03 D0 A0 90 5B 4D 5C 65 86 60 59
 F3 C8 DA 42 6D 33 A8 0D
* End 1658839588 2796857324