* LTspice Encrypted File
* 
* This encrypted file has been supplied by a 3rd
* party vendor that does not wish to publicize
* the technology used to implement this library.
* 
* Permission is granted to use this file for
* simulations but not to reverse engineer its
* contents.
* 
* Begin:
 CE 99 25 2F BA 9C 12 0F 5F 7E 21 67 D9 84 E8 A4
 B9 C2 13 0B DA A9 3C B0 80 E7 B6 A7 15 57 7A 37
 F4 C9 36 40 6A 33 83 40 21 0E B6 0C 8B B1 8E D2
 96 7A BD FF A1 D7 CB A8 94 A3 65 4D 6B B6 21 4C
 8F DE 52 23 37 60 94 41 13 1D 8F B0 CC FC 43 39
 EC 98 FA 51 B4 CC 4C D5 03 0A FC 64 89 25 E4 F7
 F2 F7 93 56 CF 69 59 7D FF 85 D0 64 79 8E 84 DA
 CE 43 1A 50 38 40 FF E1 B9 6E 60 02 A8 EC B3 73
 84 2F B1 F9 0C C5 23 77 52 CF 87 EE A5 7C 26 D3
 5A D4 FB C9 87 74 D0 31 66 AC 70 5B EB 12 D0 32
 E4 F0 21 E1 E2 C7 42 AD E6 55 18 5E B0 7A 8B BB
 05 01 A6 CA 88 FA B0 65 2B 5A 2B 8B D1 47 0F 37
 BA 9C 51 5C 13 6E 1E FD ED 9D 23 E7 B5 75 CC F6
 19 D3 71 CE 3A E7 7D 13 D5 41 4F F7 D3 F1 41 75
 BF 70 23 75 21 A4 29 DF 27 61 D0 77 49 59 65 6F
 D0 01 8D AB 8D 47 F8 E3 73 2D 13 26 E2 68 A4 CC
 06 7D 44 09 AD 0C 4F 50 2D 76 20 85 88 3A FB 64
 A1 F7 BA 86 05 A2 0C E4 BE 63 49 B9 0D 78 89 D9
 F3 0B 5D A7 49 BF C5 8E 25 37 D9 70 1D C7 38 2F
 D1 4C FC 8A 89 26 6A 55 B5 9F 5E BB E0 CA 16 AF
 62 A0 85 F9 C9 D1 AB 2B 6B 1E F6 47 0C 1A 9E A0
 61 9E 80 28 DC E8 C7 D1 CF F7 F2 33 16 0A 10 D8
 1C D7 46 3B D2 5E 5C 46 CF 1C 4B 72 49 3B 49 5E
 68 0D 92 E3 AD AD 60 CD 18 19 F1 B7 E7 A0 D7 B7
 8C 1E 0A 33 AE 56 14 2E A9 CA 71 B5 E8 FF C3 D9
 94 D9 EE B5 8A A7 C6 48 96 FB B8 98 93 32 47 53
 98 74 88 47 54 75 AF 10 1C 0B 2E CF 60 0A 1C 11
 1D 64 E1 73 E7 C9 9A ED 47 03 53 59 AF 79 86 BC
 20 D1 3B F5 CC 9F 9B 62 24 10 68 3B C3 FD A0 5D
 1A 05 F9 E4 7E 82 CA B4 D2 70 41 19 28 B0 FE 0A
 D3 7C 07 BB F9 3E D7 40 D0 62 AC 8F CC 99 EE 1C
 EA 85 4D 2F B7 89 99 58 8B E9 3D 18 78 99 F1 42
 D0 49 E4 C5 0A C6 59 BD AC 50 08 BB F3 7F 03 5A
 94 4C D5 BE C8 FB F6 E8 F1 F1 AE 82 CC 1A 32 8B
 5E 99 CA 3D 07 EA A2 0F 5B 50 56 7B 4A 95 4F 86
 F1 1C 5F B8 9F 10 CD C6 20 FE 72 C6 07 3C DE 3F
 9B 95 08 E8 B3 61 61 CC ED 50 FE E2 ED 86 34 6F
 EE 70 B2 FF 6D 4A C1 21 7B A5 2E 12 83 E6 89 C4
 7B 97 D5 4B 1C D9 11 CE 7F 7B 20 17 38 A8 A4 06
 A7 FC BC 15 FA 29 E5 A2 0C 56 81 F7 94 2B 4C A4
 70 67 89 B7 63 A1 7E 52 F9 FD D6 E1 E1 C8 53 6C
 61 F7 7B 9A C7 D1 85 06 BE 8F B9 2D DB FF C1 1C
 A9 BD AB 4F 61 66 4F 19 88 F9 AB AF 62 CD 83 FD
 86 D6 78 7F 46 A6 DA 3C 7D 45 C9 6F 3D 66 F7 07
 4E 67 BF B8 15 69 34 11 C5 D1 99 F0 06 F3 2D 0F
 C6 DD D8 7A 28 E3 F9 EB 84 67 04 94 68 A3 C6 8E
 7F 0F F8 3D BF 58 A0 14 80 0C C1 88 89 7B 14 1D
 A1 0B 00 64 D9 5F 61 47 A4 4A 9F C3 EA CA E7 82
 AC E5 FE 8B A0 E0 19 61 99 91 BB 1D 4F 1C CA 6D
 5E 08 30 49 77 D8 E2 27 50 CD 6A 88 56 61 D4 1C
 37 75 71 0F FF 8B EF B3 39 31 79 77 E9 4F 27 07
 C4 1C 4C E8 5F 07 14 22 36 4B E8 90 AB 16 CD 1B
 35 EC 33 21 1E E7 21 C6 80 9A C9 44 88 1D 59 17
 63 9E 6D 9A AF 1F 3D A7 08 4A 21 C3 F0 18 1E EC
 8B B4 6E E9 B6 29 AE 6E 7B E7 5E FA 1C B6 79 7D
 1C C7 C8 1F 41 8C F1 BC 41 B9 76 40 2A 7B 5B F7
 1D F1 48 28 0C E7 AA C5 3B BF 08 D8 E1 14 A6 3A
 00 B4 5C 50 E9 6B A5 43 B9 CA 9B 81 82 96 BE 1A
 62 86 10 FF E4 A4 3B 0F 09 AD 9F 17 FA 46 48 5F
 8B 88 81 45 0F E3 F4 4D 39 29 D6 51 3E F8 0E 01
 C7 EE B6 EF 5B 60 C2 11 11 EB AF 23 DF B5 49 57
 B5 3B 8B A6 44 7B 88 F7 0F FA 3C A1 66 5A 46 B7
 17 20 33 E6 92 51 0E 5C 66 5C 78 91 91 36 F0 AE
 2E DB 98 CE DC 3B A2 A6 03 5A C5 57 7E A5 01 B6
 85 95 96 61 BF CA 02 CA 34 C1 E0 3C 60 B9 65 F9
 4B 70 45 58 BB F2 6F 28 76 A9 3B 6A E7 11 3C 58
 CB 6B 8A 81 92 8E FC 7E 77 69 1E 56 CD C3 CF 96
 76 9F 44 EB CC 31 A9 DF 10 E5 97 70 85 68 0F F1
 FC 1C 7C E5 FF 7C 8B B8 9C 85 36 99 EF 3D 8C F2
 3B EF A1 B7 19 0A CA C0 3B 68 6B 52 D7 28 7A 7A
 1B AB 9C 18 29 95 21 56 53 2A 80 54 EF 99 72 8A
 4C CB 2B BB 21 47 C5 DA 83 34 A8 D0 69 79 E9 8F
 30 88 14 75 FD 8B F2 A2 0C 1A 64 D0 6E 55 46 24
 D0 15 21 1E DF CE 5E 3A 34 65 94 CD DA AC 69 AA
 BF 00 1E 7B B2 25 94 F3 46 27 4D C9 58 5A 9C 9A
 9F 73 9F 84 ED 90 01 F0 5E 47 17 A8 32 14 0B 73
 55 D7 16 5A DF 56 02 26 27 EA 7A 61 47 3C 87 00
 5F 09 87 DD 99 D8 CC A6 DC AD 0D 24 BE 87 B4 F7
 41 A5 A8 17 46 83 C2 E2 23 5D FC 44 CA EC F9 B5
 51 DF 9F CC 95 6A 04 54 9A B7 6D 85 C4 CA 1A B3
 4B 25 F1 F8 92 03 1C 3C D2 52 5C D8 DD F5 D8 16
 4D B2 B6 D3 F7 8B C7 C5 54 1A 49 CB E5 9A DD C2
 76 9C BE 44 40 47 A5 54 41 4F E5 8A 0E 88 3C 54
 FE 63 B1 E1 BE 95 E4 07 72 03 25 5C 58 CE 8B CE
 12 F4 AE F0 D9 08 64 76 48 BD 98 9C BE D8 C3 FB
 7B 91 D2 74 64 81 4A 7F F1 47 E7 A6 35 3F A4 42
 5A 63 00 96 1E 04 76 AF 77 F3 10 81 C4 39 6E 85
 71 9F 31 B4 13 7B 2D 42 03 FE 34 D2 77 AF C2 8E
 9A 31 A9 5D 0E 1A B8 E4 4A CF 22 34 CB 6A 9D A4
 95 EA C3 B4 44 47 15 D9 A5 5A 0E D8 E7 35 CA F5
 FD 06 08 75 84 7F E6 79 77 E3 AB 76 E9 DA B5 48
 30 CA C3 14 A1 F5 02 25 3A 20 5B BC 82 2A 5E 4B
 5D 25 FB E5 52 63 85 C7 F2 9C C3 AB B3 04 8F 6F
 E6 8C D5 F3 75 55 00 1F 0D 4F A7 35 5F F3 87 0F
 46 34 D2 22 48 03 BC D1 84 C2 1B 4E 5B 0A 95 ED
 64 77 0C C4 35 AA 9C 6C E5 CC 3C 66 9B 2A C1 6B
 AC 84 46 95 C9 BF 11 BA DA D4 93 94 52 EA D2 88
 98 32 0E B4 90 7A 9E EC B7 FD 0B 23 BB 45 84 6D
 70 E0 29 24 59 06 D9 F4 D9 0A BE 13 87 89 6F C8
 7F 63 C7 49 A3 90 DE 35 0E BF 1F 87 9A 7A 43 ED
 D2 15 8A 62 99 C4 87 69 1D 1A 68 11 B8 6C 57 74
 89 0E 01 0A F0 4C D8 1A 67 B3 64 34 5E 96 41 8F
 49 DD EF 05 41 FD E6 E8 0E 93 49 3B 78 7E 13 69
 6D 62 03 A8 39 56 13 ED E6 39 48 F3 79 2A B5 6B
 F0 0C AC A2 0A 03 73 3A E1 B7 DB D6 FC F2 77 F9
 A5 29 93 F4 21 8E AE BC AE 06 94 F4 8B D1 6C 8D
 07 35 FF 1E D0 36 60 57 F9 AB 20 DC E6 1D 5D 9A
 1B B6 29 C7 E2 70 7D 71 E6 8C D7 05 30 67 12 42
 12 05 8A 6D 04 94 45 73 B2 33 F5 49 0F 50 65 BD
 8D C2 EA DE 39 12 97 AA 5D 38 96 3E CE 5E A3 C0
 3F 4B 6D C0 EA 08 BC 07 3F 10 78 A4 E2 18 9E 2A
 89 AA 3F F4 BF AA 37 8C 77 3A 4E 8B 4A E6 0A 31
 13 7A 9B 6E 68 46 BF FE ED 5F BD 1C F7 34 61 10
 7F D4 D2 95 6D DC 10 0A 3A AF 51 CB CB BA B8 00
 B8 74 F4 A0 B4 A8 84 E7 42 F0 BD FD 6B 2D FD FB
 9E BB 7F 7A 5C E1 0D 7B 5C 90 79 93 60 E0 12 33
 F8 B7 0A F5 C4 7B BB DA ED A0 B3 6A F9 85 D1 B3
 AC 37 B1 38 9E 4C DF 99 47 B1 F7 7D 4F 48 F3 E7
 33 B8 B7 F6 D6 71 9E B8 7C DE 01 A2 5C 2F 45 0F
 F3 3B 3F E2 03 12 E5 17 0F 2C 3F F9 3E 83 95 BD
 FA D1 38 A3 13 D7 31 FD 22 DC 57 7F B1 E2 75 C1
 4C 88 AA 39 85 EC AD F5 0D 37 1D 51 24 75 24 73
 C7 ED 32 99 48 50 3F F3 71 C8 B7 9F 7B 23 6A 39
 13 4D BC B5 9F 22 C6 11 4C C9 BE CC DC 02 6D 9A
 DE DC DF 04 1E CE 1F 2F 08 60 BC 83 19 55 0C 49
 00 E6 8E 53 A4 87 AE 53 96 FB 19 70 13 F5 4F 6D
 FA 7B AA 1B A2 60 2F 3C A2 E2 79 3D 00 77 CB F0
 2D FF 0D 3D C2 E4 BD 14 45 D0 0A 3F 4C 6B 68 82
 1D C5 CC 8C 8D C4 93 F4 D2 CF 70 6D C6 EE 7B 12
 12 1B C4 3D 6D DB EB 4C 9A D5 CE AD 7A 4A FA 55
 37 3E 13 2D 68 2D 8D 46 57 D6 08 AE E9 AF A8 E2
 41 94 81 5E AA 74 EE 63 47 CB E4 98 A4 42 D1 0C
 EC C7 EF 98 EE 97 61 F9 D5 71 1A 92 82 8B E6 28
 70 1B 8D B1 1E E1 6F 7C 83 69 5D 96 B7 9D B2 B5
 EA 73 3B E7 6E 4C 3E 0B 19 CB D6 B2 71 A9 D0 CD
 A5 07 22 1A 11 19 0D AC CC 80 56 EE 7D AD 9E 14
 87 43 F4 61 1A 3C 79 BD DC 0A 58 30 95 12 75 A5
 47 47 2E EE 33 95 42 EE 7C 4C E8 A6 19 E1 81 14
 5D 79 ED EE 74 52 44 EF F8 AC 73 6B 84 ED D1 28
 0A F3 54 C5 A7 04 7A 33 CC 96 BD 30 55 34 7A 58
 E7 EC F2 DB E8 2C D3 14 BC AC A4 55 78 F3 13 22
 04 1D D9 62 52 C7 09 01 C8 9B CC 15 CE 01 8B 86
 E4 7D 6F E2 BA 01 96 32 98 AC 3F 7E AC 9B 8D 50
 15 85 BB 81 0E 72 11 FD 29 43 2E 23 C6 11 A6 A7
 99 BC 24 59 2C 37 FB 98 42 E9 50 1F F4 D2 4B 5A
 91 80 DE 5B 2E 25 2A 9E 69 8B 11 A0 51 FB 44 4C
 CA 2B 4C BB D8 08 64 AB 92 70 73 20 2A B0 08 6A
 8C F5 D8 64 61 01 7B 4F 41 DC 42 E2 52 14 08 30
 81 DB 4A 10 B6 50 D8 D1 59 1A 89 49 7F 83 6E 5C
 48 16 5E 0E DF 6B 42 26 25 09 6D 8A 9A 55 2F 52
 44 7D EA 06 88 9D 79 BD 8D D3 C6 47 22 7D 8D 6A
 D2 D7 DD D8 EA 1A DC 30 F9 F0 FD B3 D8 AB 85 89
 B6 95 23 7E E8 80 B4 D6 F9 12 3F 7A A2 49 73 3D
 08 20 FF 46 5D 5F 02 07 DE 6C 1A 65 6F 46 67 8C
 CB 69 CE F0 39 9C D1 40 53 BC 20 49 36 A7 7A 76
 7C D7 B8 47 E3 CD 91 A1 46 D3 49 AE 1D B4 A9 52
 A1 AF 90 A3 60 3C B2 2E 1F E9 58 0D 00 C1 82 53
 F3 D5 E7 A8 66 5E 08 71 E8 6A 19 A5 0F 55 38 B1
 7A 9A 3A 5D 0C 6A E8 BF E7 F3 57 3F 48 2C 90 A6
 9C C8 B3 55 F8 DA B8 55 55 4D 50 4A C9 02 98 5A
 9C 70 94 C6 7A 0E 76 7D 40 29 9C 71 0A 4D 45 23
 40 08 2B 6C 3E 8F 6F 2A 88 3F 49 EF 1A 6E 1D 5A
 94 77 F2 90 06 B0 B3 29 1D 73 96 27 24 E6 45 C6
 9E 08 04 0B 7C 21 38 F4 6A C3 DB 77 92 C8 E5 F6
 2B DA F0 5E A2 D9 18 25 3E 34 69 00 6A 7C A8 C1
 36 8E 34 54 E2 A9 AF E4 82 35 A2 64 0A B2 8F BB
 09 0E E1 68 45 9A 9F 6B E4 6B 01 26 E0 AD 11 53
 76 E6 17 71 1C EA 8B E1 2C A1 F9 38 0A 6F B8 56
 46 84 74 E4 DC 1D C4 9C 35 F4 47 7C 20 31 D4 B9
 76 66 E5 C7 77 ED 6A 91 76 92 D5 D9 78 F6 5D 68
 0B 89 49 FB 77 6B BC 89 CF C3 7B 80 98 00 08 5D
 53 EC 8B C9 C1 82 2C C5 4A CF 25 1B 9F AA 1D E3
 6E CB 98 3B 66 97 FC B9 EA 2F 80 CC 3D 43 FC D4
 22 CA 31 C5 A7 72 5C 7B A9 46 29 B1 72 09 17 BC
 EF 56 4C A0 65 65 1E E8 1D 19 EB 37 5D F0 2E 26
 E6 91 74 58 29 BC E1 B0 4E 70 8F CD 49 4C 6F 40
 9C 48 4E 1F A8 05 7D F9 2B 36 56 88 0B 49 C5 9E
 62 14 E7 89 9A 22 02 C2 E6 E6 73 59 8C 27 7C 3E
 26 BF E9 F3 C3 54 F3 D6 54 98 07 97 17 6F 1F 58
 9F B4 6A 2F 67 1E 5A 50 BE 40 BC F0 43 1D 55 C6
 6F 07 DD B6 49 E7 87 B3 72 12 5D B7 2F 3E 79 AD
 A0 66 3B 73 BB 47 9E 32 66 4C 85 47 72 AC 45 DD
 2A 8F AB 4A 66 F7 12 86 44 BD 8F C2 50 42 B4 A8
 B4 15 85 AF 8A DA 23 4E B5 23 8E 23 2C 5A 66 B6
 15 86 7F D0 0E 57 69 19 2C F7 4F F8 74 12 81 B5
 15 4B 85 58 3F F9 B5 E6 1D 29 06 56 A6 32 7C E9
 65 47 03 09 AE 0E 21 F0 10 D9 A5 85 54 C3 A3 75
 F5 9A DF A3 8A 5E 7C 1E C1 BC CB 47 04 64 D4 DE
 74 ED 6A 1C 22 E7 29 A1 24 B3 1B 57 77 8B ED 48
 98 83 23 17 A2 A9 12 90 01 B9 DF A5 D2 ED BB BC
 73 83 F6 2A 3F D3 9C A6 DD E7 6F 04 6F BD 15 D8
 B2 7E 0D 20 A5 93 21 1F 6D 86 5B 1C EB F2 CB FF
 3A B2 34 8D 3A F6 CB 31 90 DB 83 1E 26 02 E0 E4
 DB 4B AF A8 8C A7 43 A6 F3 FD A7 3F B6 38 39 98
 A7 0F ED F8 67 D3 81 01 EA BC 06 AA 03 20 9B 74
 AA 64 93 8C 0F 7E D1 8C 96 84 41 04 E8 D0 F7 1A
 34 74 5C A4 9C 65 12 1B B8 32 CF E9 60 3F 31 08
 80 79 4E AF 96 70 5B 17 6A 5B 99 8D AF 3D E0 A6
 C7 FA 53 0C 66 79 AD EF 6A 3E CF C6 54 D3 B0 79
 10 62 6A 38 67 42 62 8D C5 4A 45 A2 CA B0 BC 76
 2B 71 B8 C8 E4 1A E9 FB 53 65 7C 26 F9 95 48 F9
 F3 FB FB 55 F9 A2 EC 4A 44 19 19 DB E4 FF C4 4B
 9F C7 97 8C 31 8D E8 93 DB C1 DF F2 8D C8 E4 18
 B8 41 5E 2D 66 97 D4 04 17 C9 D3 D6 AA C1 18 3C
 4E 6C 13 3A 77 45 47 DC 3D 13 AF 65 40 11 B2 DC
 DD A7 EB 7B BE D0 33 8F 0C 59 F2 3A B0 1D 0B 54
 54 1F 8F 09 4F 5B 2B 03 1A 1F 6D 4C EC B7 A8 70
 EF C7 BC 12 F3 CB C0 97 FE DA B5 32 2B A1 D1 75
 0E DF C1 CD CB 0A 14 DD B1 96 01 92 0E 39 1D D7
 13 5E 8C 3C A2 A1 57 DA AE 72 34 9D 99 8C FB 49
 42 D7 28 D8 E5 3A F8 35 CC 6B 8F 4B 17 F8 46 E5
 68 6E BF 5B B6 F0 38 72 AA 3C 14 25 50 68 F5 31
 F8 04 5C 86 45 AD 64 45 D5 26 6F D7 59 3D 8B A8
 80 C1 29 42 17 06 4F AA 3C 44 57 3A 21 2B 46 A8
 F4 AB 2C 70 15 58 1D 27 2E A5 26 7F D5 AA 4D 22
 1D 2B B2 FD ED CB 9A D4 C3 54 5C AD C2 15 08 3F
 49 61 79 00 F8 EC 61 0F FA 0A BD B7 0B 04 A2 45
 90 9B DF 6F 2D C3 67 18 6C 3C 87 D4 4E DD 0B BE
 AD 0E 3F 65 A1 55 26 F0 51 4E A3 6C C1 D6 D1 D7
 44 7D 61 C8 82 7B F3 B8 68 76 1B B6 E8 AF CE 6E
 24 6C 30 5B 33 C4 CA F2 31 E7 88 5A 1D 32 A5 4F
 27 E6 17 0F 20 53 49 4E BE DB 46 E3 45 3A 66 E5
 AD 66 F7 9F A0 3A BB 26 C8 3D C0 C3 A8 09 66 B3
 A3 F0 17 9C 1E BE 75 8E A0 BA AE B1 C4 EB A3 8D
 7E A6 C4 E4 22 A8 80 CD 13 27 1C FC 22 D1 07 B7
 51 84 8E 04 7B EA 1C 06 70 9D C0 3D E6 39 FF 37
 8F 97 0B 7A BF CA F1 30 E3 6B 46 0F 43 2B 19 EC
 83 C8 07 65 32 22 C9 52 6E 52 F9 3E 72 75 82 53
 19 8D 21 4D 20 7B 48 06 99 80 F3 87 1C 4D 18 5E
 02 AA D1 94 B0 B2 C8 7F EA 6A 5C E5 EC 1C FA 1F
 B7 D7 23 A6 31 09 A9 EF 0E 4D C2 F2 B7 79 4A F1
 9C 19 1F 24 48 84 2D DE CD 92 74 B7 70 94 0B F9
 C0 F3 1E CF 76 FE B6 F7 13 18 E1 08 14 63 B3 1A
 C0 4F 55 09 66 B1 B0 98 DA 25 03 C8 70 3F 35 EF
 FC DB C7 A0 8E 8E 3B 42 A4 9B AD 41 01 33 1D 90
 29 EF 83 FD 0C 01 F7 E1 E6 8D BC 2F 79 A0 2B D1
 9E 45 17 3A 69 B0 1E 6C D5 91 4D A9 29 F7 D9 FD
 F0 B8 C4 12 05 94 39 E8 84 3B C9 42 AC 55 E1 69
 4A 9B 79 39 21 48 A0 AB 16 AB E1 E7 42 FA 0A 71
 00 4E 8B 64 73 BB B5 75 31 E9 83 DC C4 39 E9 4C
 06 A3 22 4C 92 51 EE 7E 28 4C 84 77 C7 C3 21 21
 88 3A 62 60 FA D2 11 9B D8 32 AE 31 28 4A 6A EB
 B4 8E 73 48 82 0A A8 35 E8 75 FA 92 FD 35 1E BF
 F5 42 CD DA B0 C9 D7 3A 29 63 68 E0 27 75 C8 57
 BA C1 EF 4D 13 1B 12 93 D8 5B 74 A0 9F A2 04 4A
 80 E7 0D F5 4E 19 A9 E2 1E E3 6D 79 0B C9 E2 2F
 D7 94 27 3C DE E4 8A AA 7E E5 61 22 AC 7F 04 E1
 BD D0 95 27 39 9C AB 6E 4D 3D BA 56 74 CA 8A D4
 2C 92 92 F4 33 EB 7E 25 2B CB 41 A8 7F 53 86 29
 D3 C8 47 7C CE 0B 26 4C C1 E5 16 AF 1C E3 D4 38
 32 56 35 75 A2 AA 82 51 94 F6 31 3B 4D CA 56 DB
 BB FA E1 BF A2 92 55 6F CD BF E3 BD D1 EF CE AD
 CC BA 86 E8 FF 03 61 73 F4 7D D0 95 50 50 37 6F
 61 34 9F FA B5 36 8A 2C 05 3C D0 E0 77 E3 08 EA
 86 2C 62 09 A0 47 80 A4 EC B2 89 D2 F0 BF EF 52
 A8 B2 79 4F FA 34 5C 4F 3F 47 B1 A3 31 99 30 9D
 DE 92 5B 67 0C 20 A1 48 FA D7 DF 88 57 60 7B 9C
 73 A7 79 16 97 49 27 4C F7 4F AA AB F5 76 FE 86
 E5 C5 56 F7 7C 80 3D 50 8A D0 A6 A8 1E DD B2 91
 22 0A 7A 2C 2A 0C D7 EE 88 B4 4F DB C7 3C 34 CC
 1B 16 C9 66 C9 58 41 86 E5 E8 FF C4 51 AB 57 75
 C9 69 1E 02 75 BC 9C 54 20 F3 48 1B 1B 3C 33 DA
 C3 8D 71 CA EA B2 A5 F0 97 B8 4D F3 69 A3 B5 FB
 31 A8 C3 5C C4 0F B7 8C 6D 42 02 5D A9 E7 23 30
 D5 4E 4C 71 48 EA EB 19 3C 35 72 C3 53 34 18 FA
 7C 0F E6 2E 13 48 AB 27 9A 02 32 EF 40 26 83 74
 7B CF 7E C0 BB BD BA 6C 0C 13 99 49 52 FD 1C 73
 26 54 02 D4 76 07 ED 22 C7 F8 79 BF E4 CD 1A 8F
 68 90 10 B2 6C 34 55 69 8D 6C DB 0F F0 DC CE 1D
 2B DD B1 81 CE 7C 71 BE D8 32 37 BD D2 E4 3D EE
 E2 44 94 FF E5 E6 63 E6 06 74 1F 80 11 1A 37 19
 4A D7 FF E6 57 67 27 ED A1 EA 55 9B 71 E2 22 A8
 E0 C1 AB 19 D7 4F 42 07 5A 4E DB 26 A0 6A 1E 3F
 AE 1D 5D E3 52 05 63 D9 DE C7 9E 1A 59 5E C6 59
 47 AA F6 15 20 E7 E0 78 41 D5 5C 09 BE 14 4F 79
 B2 B7 42 A4 22 41 90 BD FE 3A 16 36 C2 70 CE DE
 13 E5 7C 79 B1 55 D3 DF BF E6 37 FD 86 CF 57 ED
 3A 26 51 25 2C 6C 96 75 81 6E 7E F5 B2 CE BF E7
 46 00 E2 00 ED D1 7F CB 34 C1 3E CF 57 7B 6E 5F
 86 A8 4E 7B BA 17 EA F2 7E CF 9E BD 58 D6 AE 81
 1B D8 1A 21 25 14 68 E5 9D 92 C1 31 C5 12 F3 CE
 75 F8 C0 CE DE 33 CE 00 6A 36 11 A9 0E 0A DF 56
 6E D9 9C CE 90 F7 DC 4A CB 14 0A 6A A7 77 8B 35
 57 B1 88 47 BE C0 10 8B 63 0C 9C 93 E9 3F 7B 6D
 53 57 74 11 39 64 28 8B C0 40 93 CE 12 6D 38 4E
 1D BD CA 3C D8 32 B8 B0 1B F3 54 3A A9 82 26 03
 86 69 70 3D 1B 98 1A 7D 76 0B AD E3 37 D4 5E 03
 53 7F B0 F9 4E A4 8B D8 EC 5D 4E 84 C0 2F 49 07
 0D 53 7A 3F 77 E1 A7 16 84 1F 49 5C AB BC 64 E3
 EF AA 83 BB 9E 8A C5 37 FD 69 4D 96 7B 7A DC 31
 27 9F 1D 90 87 1E 77 4E 1A 2A 8E D9 8A F4 77 51
 93 CC 28 11 49 E7 8F E0 5C 6D 69 35 A5 FC 50 98
 C1 EE 26 BA 7E 4E 21 A2 38 BA 0E 05 0B 7B 20 90
 DB FD A1 D4 26 C2 C4 4B 05 AA 21 73 64 99 B8 B8
 81 0C 82 01 94 78 1D DA 0A C3 88 23 02 EA 94 36
 63 26 DE 53 64 79 60 09 F6 9B A5 54 E7 45 6E 03
 79 41 5C DE FD 7D 1D 55 77 7B 97 E4 86 0C A5 CF
 EA 65 36 9F 28 89 C3 94 DD 64 7D 11 1D 2E 49 DB
 16 57 C2 E1 35 66 A9 08 86 92 CF DF 3D D9 DB D1
 51 BB B8 5C DE 40 77 B2 06 D3 F4 9E 9B C0 C7 F1
 1A 1B FB 1D E6 CC A5 00 A2 AB 2C 44 15 4A C4 7E
 CE 2D 64 BE 71 18 BF 03 B4 94 87 99 59 22 24 2F
 17 56 B0 5A C7 96 0E 92 0C 04 F7 8C 9B ED 80 1F
 00 98 11 4A 92 40 FA 37 F1 88 26 45 83 37 BD D2
 93 9D 5E B4 7B 9D E0 73 3C 9A 23 7D BD BA 69 DA
 2C 47 0B BB 60 7E 75 49 A1 6C 13 E3 96 59 4E C2
 D6 D9 96 A1 62 C9 F9 BD DF 8D F2 25 C0 20 18 6C
 CB C4 99 BC 5D C9 F0 14 F4 3B 19 7D 3C 1E 9C B7
 69 BA 7E 1E 82 EB 73 E4 1A 61 20 F5 16 6E 3D DE
 A6 C4 18 D2 2F 46 43 1A C5 CA FF A0 7E 00 2C A6
 C6 3C 04 8B BA C0 6A AB B5 C0 FC 8C 80 CF B8 82
 E5 B7 2A 78 85 41 EA 31 7B A8 94 34 DD A4 EA 7C
 DA 67 97 E6 90 BF C1 2A 76 82 12 C4 44 8F F4 D3
 B0 93 FC D1 8F 39 1B 9D DD DA D2 A0 08 3A 0A 48
 C7 D5 00 0B 34 DB AA 71 6F 1F 3E 9E BE AD 71 99
 6E 31 19 11 A9 18 92 70 FC 9A 61 CD 49 60 F4 AA
 03 E8 BB 99 EB B2 E6 2D 0E 63 3F 1E 3F D6 5C EF
 F9 BF 96 5C AC 4D 2C CA FD E1 56 F3 7A 58 12 5F
 F7 A0 A4 AD 8D 55 49 A5 AE 5D 19 6C 1F 37 4F 7D
 09 78 DB 3E C0 E4 04 70 E9 34 1C EE E2 4E B1 70
 50 56 3D 78 C8 A5 05 57 57 3E 37 C3 6E 6B C1 2D
 87 34 14 83 86 44 10 21 F5 46 21 96 D3 81 13 E2
 B7 73 FA 71 AC AE 80 56 51 86 72 C9 ED 6C B5 25
 FA 49 BA 7A A8 76 13 58 BB 8B 1F E7 70 3E A1 F4
 B3 4E B2 62 EE 03 ED 38 81 C4 A4 94 88 F5 1A E7
 B7 73 EB 3B D1 98 2A ED 13 C5 9C 47 91 84 C4 14
 0E E1 D4 EA 97 A1 97 D2 CC 9D 97 01 89 25 2F BC
 B7 3E 3D 95 82 D4 F9 4E 89 E9 0F 4D D4 C8 85 CE
 FB F9 4A 27 D7 40 74 60 5F E4 5A 0E DE CB 77 75
 F7 4C 6C FE CD 93 CA BA 49 6D 2E E0 63 C8 9C B2
 33 CE D7 D2 4D 4C FF 2B C5 0B 15 63 44 D7 72 5A
 DA 90 8C B5 4F 13 AA F6 66 B7 EA 87 3F 38 17 88
 58 20 3A ED 61 21 01 07 FF 2E 41 B2 75 66 B1 6B
 C5 C3 BA E5 C0 D6 85 FC 6E 9C 0F 4F F8 AF D6 E8
 6D 9B AC 1B BA CC E5 0C C9 B8 0B 65 33 E3 6A 41
 80 8D 45 2B 8D 19 8B F0 D7 56 CB A4 1F 6F A7 A0
 37 D9 5A B8 8D 43 54 D9 08 80 8A CE 47 C8 EB D3
 4F 76 C4 01 5D 43 B1 F8 36 0A DC A9 22 FB 51 A3
 9E FB 40 E1 DB 7A 97 B6 1D D3 13 1E 2F 40 01 CE
 5A C7 34 E4 F0 C4 CD 84 5A 1C 78 79 6F AA B9 0A
 41 CE 05 76 1F 6A A9 B9 67 78 79 B8 E7 9D 9F 61
 43 1D 61 D3 7A 23 36 7C E1 73 C5 AB 30 5A C6 F1
 8D 3B 91 AB 29 4A 05 03 4A 09 B5 02 19 9A E0 42
 43 0E 40 87 75 FD C1 36 86 E9 26 A1 77 BB C3 3A
 3D 0A C7 2F F3 2F 18 F8 1B 0B 27 45 8C BB 74 D9
 C0 49 7E 1F 19 51 C0 04 BC A3 8E DE 6A E7 FD A9
 69 71 B9 8E 4C FD 3F 9A A5 68 CB F3 BF 0D 51 3D
 DA 6D F1 60 65 05 67 F6 91 01 FD 35 E9 8D 64 F2
 3B BF D9 C1 03 CE 84 18 C2 A8 76 0B 16 6A 74 15
 E6 03 23 C5 10 E1 B3 CF B0 A0 50 16 45 A4 32 3C
 ED E8 3C 41 48 11 69 EF 67 60 64 1A DE A0 21 85
 D5 00 98 39 02 DB 32 EC B1 19 D0 F5 25 FA 13 D5
 B7 20 FE 6D B5 A5 BD 52 40 C1 4C 12 F6 6A 9B A2
 D0 A1 FD E1 D2 AB AF 0A CB E0 82 22 39 4B 86 F7
 0C 0F D0 CB 61 04 C1 79 78 45 B4 E3 80 32 F4 34
 2C 22 A0 14 61 B3 B4 FA 52 84 2D 7C 24 BF 01 34
 0C FC B1 FD F5 75 AD 11 AE BA 2B 65 85 06 11 D4
 92 05 DC 2C 45 6F 99 4B A7 0D 6F 5A 0E B5 1A F8
 49 10 0E 9F 52 DD 30 AD EF E1 35 FC E7 F7 79 C8
 55 46 18 74 11 C5 71 22 80 06 92 D0 45 8B FF 7B
 15 C2 E7 BB 07 61 57 38 53 77 99 60 E6 DE 54 DC
 18 6A 86 85 EE 3C B5 1C 89 39 19 AD 8C A7 C8 D2
 99 4A 04 6B 34 7C 93 0E AB 00 F9 9B 44 BD F4 E3
 4C DD 8A 7E 58 30 DE 3D 7A 33 A9 B6 83 90 7A 48
 E6 88 71 22 9B 14 44 9B FE 61 F7 37 BA 94 EE E2
 77 76 C6 2F 93 90 4E F7 54 93 5B 9E C1 7C 10 C7
 37 54 CB 44 8D 50 5D 93 94 91 AB 3E 9B 87 EB E3
 11 68 90 24 90 65 A9 83 8E 9F A7 8F 5C DE 25 64
 4C 7E FD 27 0B 5A B8 5C EC 4A B0 3F C7 94 7A 4B
 CD A7 6D A9 42 AE F2 72 7F 07 DC 4E 7C DB B9 0B
 87 8B 04 8C 71 F7 6F 28 37 42 81 56 DC 58 04 64
 6F AB B9 13 22 D1 31 FB 41 51 08 25 5F 96 27 3E
 65 51 9A 4B F7 1F FE 9C 34 41 49 00 D9 5A 80 1E
 50 2B BD EF 14 A8 58 3D B9 CE 9D 33 E0 A5 D6 54
 85 FB CF 9A D2 2A 18 FF 3C 45 55 91 40 7B E9 0C
 96 B7 81 69 04 91 8D FC 68 FB B1 B7 C2 36 0B 95
 EB 0C F2 7F 0D B0 F0 CB EA D9 45 9D 63 F2 DF 5D
 E1 28 B4 4E B8 3E C2 39 B4 B2 C6 D2 8F B3 FE F1
 A7 3F EA 5F D3 01 BD 5B 3E 2B F5 74 5C E9 7C 69
 C0 B7 25 C0 A6 BB 5A 36 11 FB 07 1A 6D 8C B4 EB
 58 4C DB 3B 47 D2 2A A3 CD 41 44 E4 4D D2 B1 45
 A8 BC D7 C6 C4 10 FF AE 47 AE 33 22 5B C4 3F EB
 AD D7 3B 29 EA A9 F6 F7 96 14 97 76 65 15 39 2D
 69 F8 46 2F 51 F4 33 4B 9E 5F 56 65 1F FC 9C 51
* End 2974630712 550677838