* LTspice Encrypted File
* 
* This encrypted file has been supplied by a 3rd
* party vendor that does not wish to publicize
* the technology used to implement this library.
* 
* Permission is granted to use this file for
* simulations but not to reverse engineer its
* contents.
* 
* Begin:
 C1 72 59 B2 C8 9D AF AA BF 39 D8 34 5E 73 52 45
 9F BD 62 17 B3 48 AB 85 E9 7B B4 59 45 C1 02 78
 B9 23 C2 D8 88 95 1D A6 A9 61 35 1F F5 7A 9D 8F
 B8 75 AF BC 62 95 31 A6 B5 83 B9 7F 5E 20 46 98
 37 49 46 9C 28 B6 15 5A A0 56 35 A9 49 DC 49 7D
 76 D4 3A 7E 4E D4 50 D3 FE 2B 53 97 7F 8E A1 90
 5B B3 95 32 C9 98 B9 DD E9 F2 98 13 99 D8 F4 EA
 C1 17 B4 5B 58 91 C2 AE C8 30 B6 83 70 19 A5 54
 BE 6B 56 22 6A 73 E5 76 47 D0 69 8E 64 71 0B 5C
 C9 A8 01 DF 91 95 7C 60 FF 03 6C E1 E6 CC 42 D4
 12 0D A1 26 08 17 32 B4 D5 1C EB 87 85 B2 BB 10
 C9 18 03 B8 A5 A4 E5 EB A0 33 62 C7 DC B2 A3 97
 FD 4D E2 7D 04 71 45 2E D7 58 78 6F E5 A2 1F 9B
 A8 5B F2 E3 04 9A 56 8E 2B BB 8B A1 4C 2C 98 52
 67 D6 5D CC F3 AC 35 1E F0 E3 33 1B 65 59 C1 90
 FC D8 2C 19 51 64 E3 A5 F4 14 CD 7E BA 58 E6 7E
 53 38 94 05 E6 3D CF F1 5E D7 80 11 B7 A3 D4 42
 E5 72 5E 34 80 4E 18 BC 36 C7 A2 31 1D 9A CD 88
 A3 80 6C F5 36 09 D2 79 CB 48 77 3A 38 47 5B A3
 75 F8 C1 57 6D 4D F7 26 C0 30 3C DE 07 64 47 B3
 3C AD 0E D8 9D EA 7D D5 2D A2 5A 3C 25 00 4C 4A
 B8 8A 39 3C 31 E5 C9 A7 2B 4E 55 6D 2E 2F BD ED
 64 65 4B FF 4E 94 6C 01 83 33 5F A0 14 1E AD 79
 50 55 7A 5E 8D 5D FC E3 9A 56 11 36 1D 70 14 91
 A4 D3 28 2A 4C 60 42 41 C6 63 A3 30 E4 1A D7 B5
 84 2B 98 6A 5E AB C7 80 A6 D8 6A 6C 8F 85 5E F5
 DA EC 25 4D 82 AE CE 6D FD 9E C8 7D 22 9D AB 6E
 1C EC 6E 45 7B 31 A9 93 40 D0 C2 34 B9 3E 68 BE
 33 23 14 56 60 9C 3D 27 91 88 06 DE 23 02 85 26
 16 0D F8 27 3C FA 4B F4 67 0B BE C0 B8 8D 0C 39
 3D CB 94 E7 78 11 8F 79 59 A5 62 9A 87 C3 2F 75
 9C 73 49 69 0D 64 53 90 37 1A 0E 9E 2B 82 FC 75
 E3 3E CB 0D D6 F6 FB 52 AA 9D A7 53 75 93 22 E4
 4A 2D BE BE 29 8B B0 98 27 EC 7A FD 3C FA CF 9A
 FD 48 BC 1F 76 F6 8C 28 5D A2 8F 4A B2 63 23 FB
 EF 56 D7 D8 F1 88 DF F9 72 C3 74 57 AE D8 E0 A8
 5D 54 D9 E8 4F 8A AF 56 95 DD 31 46 A7 44 53 D4
 FE 56 BE 13 84 EF F2 7E FF CA 9C 74 08 85 48 8B
 71 9D 16 8A 53 28 A8 24 BE 1D 13 C7 F7 71 C6 41
 73 AD 02 B4 09 06 B0 E2 2D 25 24 C3 CE CC A5 DD
 E5 E0 1C DE DB 1C 3C DE 6F 01 D2 D5 69 33 4F 68
 C0 2F 75 51 42 25 CA 6F 21 02 53 86 31 B4 F8 D0
 19 F5 70 41 31 03 8F 3F 4D F3 83 83 15 53 FC 14
 BD 51 3A 89 B3 34 3C E6 6E 5A E1 50 0E F4 19 34
 31 D8 F7 0A C2 12 AD D4 DE CE ED 3A BE BF A7 81
 A3 3A F4 CD B2 15 9D 7C 6D D2 3E 8D F6 2E F8 76
 83 BF 37 37 E5 5A 07 A8 53 F4 AD 39 ED 8E DE 0B
 4D 34 E8 B8 BD D5 7A 39 78 AA FD 97 59 C6 74 9A
 C5 05 F5 A5 5B 72 ED 3A 35 AA 5A 82 73 2F D8 19
 6E 5A 98 2F 27 B6 B6 72 39 48 F0 94 48 DD B1 B3
 4E 59 C3 46 0C 59 63 72 E4 F4 34 E2 5A 74 BE 20
 29 10 42 76 51 F4 F6 6C C9 B6 47 81 85 9C 18 30
 5E 11 4D 7C 6A 76 BA C6 6E CB 5F FB 0D 34 46 C0
 66 43 28 D0 43 31 37 DE F7 0D 7A 79 E4 64 05 9D
 51 C7 DA 1A C1 B7 32 28 6F CE 4A D2 B5 76 28 D6
 9D C3 93 43 09 9B 3C 9B E4 9C 31 8E C4 43 80 97
 21 EA 7B D0 F3 63 E3 60 A3 47 48 D6 23 3A 6D B4
 95 1D 29 56 D0 19 72 62 71 B5 EB A5 B7 BF 8F 01
 77 CD 76 C4 3A 06 32 97 F0 C6 AD 84 FC 2C 69 34
 15 46 85 E0 C2 AD 3A 54 AB 5C 51 82 88 03 2D 60
 45 23 62 E4 7D EB A6 2E 17 18 2C 88 DA 21 09 3E
 92 2A 89 D4 C3 4B 02 4D 65 37 89 95 D0 30 53 B9
 AD C2 DB 48 4C EC E1 59 0E 89 A2 DC 87 21 89 75
 3F A8 7E A0 F6 30 FD E3 70 F7 00 47 9C F7 4F 8B
 E1 80 8E 43 A9 86 C7 62 64 07 DF 94 94 6F 52 27
 4D B1 16 08 FA FF 39 36 19 E4 43 79 C0 44 45 5B
 F5 8D 28 E2 A9 1D 6B 80 79 BF 16 2F 9C A6 13 EC
 A9 11 CE DB 7F C9 C2 92 06 00 5F C3 52 D2 C3 E6
 3D F1 D4 D7 75 C6 32 66 A5 6D A2 DA FC 9B F1 61
 C0 AC 5E 11 98 29 D9 A6 7F 64 96 21 C9 E7 CE B6
 FC CE 9C AA 08 DB 16 27 5F 54 48 83 73 64 A7 55
 1A D7 70 91 9A 33 30 9C 3C E7 20 4E FA B4 8F 5C
 05 25 A6 5F 93 7B D2 DF 25 1D C6 2B 07 C0 75 E0
 44 4D 77 AD 12 91 30 9B E9 2C 34 2B DB 0F A8 18
 A3 AF 41 54 EF 8B BF A4 83 41 6B DE 55 C2 A7 1D
 C7 29 B1 02 6B 41 77 6E 1C 89 82 B8 A8 DA 7A 35
 13 F4 36 68 14 A7 B6 47 A3 E4 9E B5 6C 0E 7C 2F
 E8 FF 4D 73 21 5D E4 64 8E B2 8C 94 4E E0 97 1C
 B5 33 AA 92 C8 82 1C 2D 7A DA 6F C7 28 E9 8F E3
 A6 79 90 F6 98 95 1B C9 08 1D FA 4A 73 36 E3 7A
 E9 65 2B C5 FF A1 5F 16 80 E8 68 9D 3F 67 90 D7
 FF D1 E9 26 DC 88 18 2C CE 88 3B 3E B6 FE B0 2A
 51 CD CE 96 B6 B4 3E A6 5B 8F 63 09 CC 0F 09 AA
 65 38 8E 4D 86 C8 69 3B AA 0B 2C 06 1A 04 CE E6
 D6 4F C5 F2 C4 5B F1 9D 14 CA E6 2A 7E DB E7 44
 77 A8 29 F5 15 F5 09 11 81 9E CA D3 E0 E9 ED CB
 D9 F2 48 72 BD A4 58 39 8F 4D 34 07 F4 94 00 53
 61 B4 71 D7 D8 B3 2A C7 41 54 68 8A ED DA 8E 82
 0E A6 BC DA B5 9C 3E E9 23 61 79 F8 AD FF FE A0
 62 40 5A D0 D1 34 6E 07 9F 6E 52 2B 11 14 63 6F
 3A 50 78 CC 73 F6 90 6B EC 02 CA 7C 62 7B 16 20
 39 BD 8D A6 0E E3 A8 C7 4B 1F 14 04 BA 1A D4 DD
 22 1B 6F A1 48 11 E5 1A E9 6E 26 C7 EC CF 2A 73
 92 BE 3C 4D 7D 48 C1 23 FF 65 D4 69 CC 7A 13 EF
 C6 6F 21 A8 57 22 33 34 64 C0 B1 E4 89 BE A2 CC
 5E 28 0D 4B 5B E8 4A 12 4C DB E8 BD 61 50 91 8A
 87 EE 65 D1 FB 17 2E 3F FC CA B7 C1 F5 54 A2 6A
 4C 37 B2 31 55 19 8D 20 7C 1A 06 7C 30 FD D5 E8
 D8 76 43 E8 C8 37 E7 AD FB 42 59 E8 05 9E 2A 39
 37 24 E2 5A 29 2E 92 16 11 CC 6F 8E 91 78 8A A9
 90 87 7C 43 1A 17 2A 17 D3 5D B2 5C 58 27 12 B5
 8B 20 83 BD 5D E9 A8 F1 0F F3 E0 C9 51 15 BF 8D
 86 F8 BD 0A CA ED 72 72 98 4F 6E 71 8E 8E 46 3E
 8B 08 2D 00 F3 93 5E 61 D4 6B AD EB 05 44 AF 78
 07 F9 1E BF DE C4 0E E6 0D 2F 88 B5 C2 65 B5 11
 8C 39 8C 68 DE 7D 7F B0 7C 0D 1C 1D 8F A5 39 B6
 E5 53 5E C6 C5 E9 9F 66 B2 D4 88 12 CE 8C 74 11
 B1 40 31 C0 45 2F BD FA 9D F2 19 39 F1 65 DA F9
 61 6B 48 A7 FE 12 E4 71 CC AF D0 B3 96 20 6E 61
 41 09 21 03 CF DA 6E 31 09 8B EB 5E EF A8 69 89
 70 F7 2F 5F 0D CB B5 E8 20 42 44 90 C3 FB 3C 42
 5A CE AC F1 36 F0 38 03 E2 E8 2D 28 64 D6 A5 8E
 8D 48 B4 C8 DA 15 80 85 17 54 C6 3D B0 07 0D 6F
 84 B8 8A 17 75 6E 81 24 91 1D 62 51 2B 4D 58 7A
 0E D1 33 42 FA C6 81 A5 E7 57 5E FB F1 5E 9C E2
 F8 95 CA 83 AF FC 57 22 46 53 4B DE F2 B1 B0 E4
 86 5F A8 5B 87 9B FB 14 08 E9 44 53 CF A0 BA 54
 71 8F 6A 3E 80 CB 9A 11 00 BC 0A CC A6 E3 60 88
 93 5C 6D C6 74 16 81 92 46 BA 28 7E 3F B4 1B 4B
 50 F9 8F 46 BA E6 BF 3A 62 46 AE C5 40 7B FE E3
 6A 79 3A C5 26 23 2E C7 AB E1 9C E0 A4 E7 CC AA
 A5 CD 25 E5 86 B9 63 BE 74 6C 1D 36 81 42 73 12
 66 B5 84 7B 08 81 38 AF 9D C3 33 E6 EE 8F 1C 59
 C9 9B CE 42 0A 26 7C E5 52 93 34 DD 5C 93 91 20
 52 77 95 1E 85 5F 2F 98 74 F0 61 E4 1B 86 7F 24
 78 1F 9D D0 2B 37 E2 E8 0F 0D B6 F2 B8 E7 7D EC
 83 AD 4F 47 44 7F D9 D5 5D 14 25 76 27 66 92 26
 1A D8 5B 92 60 F6 9E C0 9C 20 70 02 88 80 96 B5
 9C F1 C9 D3 4C 70 55 C2 D1 BE 66 08 F8 01 10 33
 CA A7 82 8E 18 23 F1 E5 62 00 41 99 B3 B7 E7 13
 6E 51 6D B8 FE 3E 49 1D D5 6C A9 05 BA AA 72 46
 C4 7A 1D CA A6 3C 1E AE B1 AB 88 81 37 BF 00 0C
 70 BD 04 DD 39 B4 09 74 5C 7F 20 38 26 DE EF AD
 2C E5 ED EA 97 BF 75 1C B2 5C 43 FE 15 25 8C 6E
 B4 C6 D2 AD 2C A3 9F 24 66 C2 54 35 D0 59 E5 26
 51 42 6F 4F 89 49 9A AC E9 94 EB 9C 49 E3 12 85
 A3 3B 48 4C BB 88 82 67 6E A1 62 9E 87 8E 78 DD
 90 3A 92 E3 D8 9C A3 08 CD 6F 86 13 CF 4E 70 D4
 B7 04 C3 D7 6A 48 C2 78 71 E9 3F 93 DB F9 32 9B
 F8 1B 98 73 F9 7D 1A 52 27 13 F7 4C 5D C2 D6 4A
 BA 6E 9F 25 3C 6C 3F 45 D1 6C C3 28 DA 70 0F 6B
 24 1F D9 AE B1 DB 6E 9D E0 9E D9 28 E0 1F B9 50
 39 7E 51 09 06 49 CA 63 5D 29 D2 B5 44 DB 53 AB
 FA E7 2A 71 E3 0E 60 70 FB D9 99 C2 B5 13 8D 22
 0E 95 C4 C7 77 81 81 15 A6 FD 65 30 DE 5A B6 02
 16 40 94 33 3C 20 CA 05 AF 6B 4C 10 91 FB 3A 1F
 ED 94 13 91 F8 1C 4F B3 8A 0C 75 76 74 9E E0 B2
 84 34 FD CF AA 35 87 A1 46 2D 34 6B 65 EE 36 07
 63 0E 09 34 24 11 1D 6A 3A 0F 2A 48 0D E2 FD 1E
 59 FA 64 11 DA CC 5B 4C 09 D3 E3 2E 34 CA 4C D0
 B6 5F 15 95 12 6A 75 4D 74 27 9A 45 F2 E3 8F 77
 19 4E 04 47 04 EC D9 EC 3B B8 63 A1 FD 94 34 71
 74 D8 F3 FD 16 97 4B E2 98 6C 29 62 A3 E0 D9 A0
 87 06 97 E2 D0 F2 65 01 DF B1 03 73 40 6D CA 6A
 18 81 23 FD 56 2B A7 05 B9 5A 1A CD 48 67 E5 5C
 51 25 EE 4C 29 C6 16 2C 9D 8E 82 0D 02 D3 BE 9B
 66 BD F8 44 38 FF 50 86 18 67 20 63 9C DC 6C 46
 21 C0 D5 44 D9 D6 BF 9F 04 B4 15 0A 71 A7 4C E2
 C3 B7 04 5E 34 E9 08 61 31 AA ED 27 E5 72 7D D4
 EC 9D 1E FA 40 D7 17 75 B9 1D 4C 92 AD 9A 1B 09
 3C 7C 21 63 86 6C 6B C7 1E 72 CE 71 B5 38 40 4A
 0A 26 04 5E A5 52 FA 93 40 E7 07 CA BD 45 F6 D4
 E1 3F 6F 1B 16 8D 9E 4E 7A 6B 81 7F 0B 30 72 B0
 BA 0E E6 99 2E BB E0 4C 7B 28 DF 0E 04 CC 3C 0E
 CC B5 6C 61 4C 13 C7 8B B4 05 BB 84 12 F6 C7 D7
 38 DB 0F 25 11 CD 39 F0 E0 58 6E FD 1A 73 21 E2
 2D 38 B9 C2 7D 0A EF CE 58 E9 F8 A9 72 90 12 BF
 C0 69 81 FB 54 9B BC B0 AC A5 D0 99 70 11 B4 45
 1A 5F C7 A3 FD A3 C0 0D D0 58 2F B1 C2 C1 99 DD
 5B 45 08 4F 5A 95 F4 99 E7 6F 5A 00 2C DB 93 89
 80 CB F5 CF 72 45 0A 7A DD 2D 5E CF 8C F5 52 67
 2D B0 DB 81 AB 6E 36 80 3F 0F 98 5A 52 A2 E7 3E
 72 B9 56 0C 25 18 E2 9E 3F 37 B0 C5 14 C3 83 D0
 CD 41 6A D4 B1 1A 97 FA CD A1 F4 4B FD DC 4D D8
 B5 A5 F9 2E 74 85 EC F6 0A 25 4A D1 98 3B DD B7
 0E CC B4 8B 22 C9 78 5D C0 76 2D 4B B8 6E 07 E7
 1F 1B 73 60 13 2D 37 61 66 4A 4D E0 D9 D4 DC 1B
 0A AB 56 AA 5E 0A 8E BC EF 06 8C 12 EE 4F 07 CD
 59 70 4E 74 76 0B 98 BE E2 B4 05 A2 15 61 A5 24
 04 A6 BD 20 1E 62 73 67 50 BE 85 28 31 79 0F 72
 C2 68 02 6A D0 CF A5 BA FB 5D 57 DB B9 86 14 5C
 9E AD 3D DF 11 1F 43 86 F1 26 95 FB A2 2A 09 78
 12 A4 F5 A1 22 8D A3 63 E0 28 CD 62 63 70 A9 9F
 7E B3 DF 6A B3 C3 FF DE 6A AB EC 0A 8D 55 CC BC
 E3 75 15 7E 79 6C 00 6B B9 68 22 3D 26 EE C4 18
 DE 19 D0 E0 DC 16 E6 27 AE 31 A4 E2 D9 00 14 6A
 86 46 CE EF 87 0B 3C 6D 7F 1B 45 01 0C B4 C6 FD
 77 CA 65 87 D8 3D 87 F5 D8 CC 1E 25 15 33 68 5D
 87 44 1E 4C F5 C5 82 08 03 69 AC D4 CB 62 DD 89
 AC 36 18 65 6E 33 84 39 1C E5 63 AD AC 66 77 B9
 07 98 6C EA D7 8D CC D0 9B 9E 55 87 27 E8 CD CA
 CC 31 E3 64 2B DF F2 A7 54 50 CE B7 03 8D 4E EF
 A4 08 E0 9D 24 5F C0 A8 D0 A6 14 70 17 DB B1 80
 B8 14 FD FA 6C 09 57 42 55 0D 3D 6E 8E 36 74 B2
 5B 3C EF F6 43 80 2F C7 32 62 9D 29 F3 5D 37 0C
 E2 35 48 DD D3 94 8B 69 8B 5A 06 E8 FA EC 6C CE
 F7 37 2B B6 83 2B 08 C0 30 A8 89 CD 33 CA 84 0E
 83 E2 58 A3 DA F9 0E 73 2C F1 72 E2 E6 66 47 DE
 8C EE 10 98 0A 74 71 F0 3D 5F BD 56 08 04 8A 42
 76 E8 9C 33 A9 2C EE CF BE B3 25 C7 F9 64 1A 41
 DD 9B 35 95 1F 36 3B E9 B5 C2 18 00 96 52 60 33
 8B 91 F5 55 AF 21 F5 68 0A 16 9E 98 B1 3D 60 8A
 5A C1 0F 8C CD 77 33 DF 9C 4E 78 DD 09 50 83 12
 C1 E7 CE 7E 9A B4 C5 75 18 3E 2D B0 1F 26 C6 32
 22 A7 DB E4 2C 4C 79 4E A1 DA C8 49 5D 88 C0 55
 6E 68 29 A4 F1 DB 99 C8 6B 79 42 62 DB 73 6A F5
 E8 B9 B7 9F B7 EC BB F1 52 D7 25 DC F4 30 D7 69
 83 CC A7 99 A3 71 99 26 BF 06 C6 DA B7 6D DA B3
 65 9F 52 DC FF FE C2 1D C5 84 9A 00 73 C1 87 42
 2F 77 CD 49 49 15 C0 C3 E6 E7 D5 28 28 91 F8 FE
 9C C2 BD 6E AC 3F 15 CF 96 90 A4 17 8F 5C B5 AF
 62 82 BE C4 35 E6 6E 60 E9 1F CE F4 21 46 D9 D5
 70 F1 FE FF 21 0D 24 39 44 9A AF E4 F8 2E CD 6C
 C8 84 1B 4D 71 2A 64 57 63 B5 2C 99 99 B0 FB 55
 6B F1 81 8E D4 56 08 98 7C 2D 7E 7B 12 08 CF 45
 53 6C C2 A8 30 1C 49 B0 B7 4B C4 53 DD 44 5C 07
 8B CB A4 A1 96 C3 56 52 47 47 D6 A4 4A 0D 20 35
 2D F7 55 4A B5 CD AB 26 CC 79 2E BE AC F7 07 FE
 82 CF F9 D3 F6 5C 59 AB 81 72 59 77 62 7E 12 AD
 C5 F1 E5 6B 95 CF EC 43 4D FF 75 CF 33 CF CD B6
 82 5B 14 33 F3 A8 34 B1 CB 6B 55 4C D5 AE E6 8B
 F5 DB 1A 8D 49 4B 45 3E 29 7C 0B A8 83 77 1F F5
 3E A9 99 D6 29 A4 F3 8D 45 57 47 A1 FF E6 C8 DC
 40 0C 4A E1 E1 3A 1E 72 D3 F8 61 11 BB FD 98 D7
 0E ED A5 90 00 56 13 AF 2B ED CA 1E F2 AB 0F 81
 7E 28 A4 50 D9 B8 D0 09 FB AA D2 06 51 CD 40 67
 13 02 87 01 91 59 8D 8D 3B 78 0E B9 31 3B B9 5E
 26 9F BF C8 6E 28 CB 69 8E A2 92 BB 75 4B 4B A6
 66 C1 35 FE 41 54 F7 5A 36 D5 78 7E 88 AC 1B D0
 33 63 6B 6A AA 57 47 FC 41 DB 31 40 5F 73 FB 5D
 3E CF E4 96 91 7F 41 1B 94 A8 AA A5 DE BE 9D 9D
 B8 FC D9 3A C9 E4 D1 23 C6 63 74 FF 4C 00 F4 06
 C7 A2 FF EE 21 A9 BF 45 0B 4C D7 99 A6 1D C1 E8
 7C 9E 84 EB E5 D7 AA 60 9C 1D 83 60 AA 55 77 96
 96 AA 7E F6 5E 78 CE 10 15 F8 05 0A C3 B0 36 97
 76 C6 DA 4A C9 B4 13 67 B0 3A 0C 55 C8 78 AA 1A
 0E 63 66 19 F8 B4 42 E6 D8 A3 69 13 D9 A6 D9 98
 CC B2 E8 90 BB 6F 61 2F 13 5B FC 21 60 01 74 5B
 33 78 0B 2E E1 F7 14 27 C9 4F EC 27 C7 97 48 83
 B8 CC DA 84 31 F0 CB D5 B3 0B 5C 62 54 A5 4B 21
 F3 62 6F 76 FF C9 8C AE 75 5A C0 EF C6 21 1D 8B
 30 D3 EB BB 4D 8C 7E B2 31 94 06 3F 7A 0D 8A 02
 1B 35 A2 D7 7F 65 B7 77 D6 17 0B B2 09 CC B3 10
 19 2A 8D 55 C5 AF DB 16 41 B9 B0 F5 CB 26 25 31
 48 47 2B 70 62 38 85 92 25 E0 39 ED 87 44 DA 47
 48 A3 07 E5 91 24 A8 0C F2 83 D7 D5 9A AD E6 07
 5A 14 2A 25 B0 05 74 D3 4A 57 37 88 55 5D 76 D7
 19 7C C7 45 6C D0 48 E7 8B CA C5 C5 C7 09 77 00
 64 94 12 DB B6 20 11 B6 E5 C0 99 DE 4A 87 20 F0
 C6 CE B5 3E A1 56 E4 03 E8 5A 0C 10 6F 01 A7 F6
 EA 3F F5 87 FF 4E 77 EC 1E 0D D3 02 36 D7 C9 7A
 1F C0 01 85 91 0E D0 C5 D5 2D 33 D4 C7 81 1E EB
 74 BF 4D 3C 31 11 EB 5F 14 43 F9 B5 EB E3 4C EF
 F1 17 6F 8F 0A FC 68 53 8F 66 E5 8A E8 E0 4E 10
 8E 02 56 22 97 56 35 25 6D 2C 60 D6 A5 81 A4 2C
 C9 02 22 0D 66 E2 7F B0 9B 46 BA 2B 06 1A FF 80
 0C 7C B6 C3 21 9E 77 BD 17 D2 9E D2 67 78 F4 36
 C6 07 7D 14 49 BE D0 44 6A 89 40 E3 B9 A3 46 48
 88 6F 20 F4 25 2D 0B 74 D4 66 9F 61 90 2D 1D 0F
 CB 25 81 7D 21 D0 C2 DB 14 F5 FA A2 45 A5 12 73
 43 DF E1 20 B7 74 11 AD 84 57 91 CA 4E 44 68 40
 5F 51 1C 74 08 82 1A 83 B9 D0 87 AD 06 2B 68 95
 61 E4 A4 24 B4 AB AB E5 35 7A 96 C7 0D F5 04 29
 0C E5 E3 DC 0E 86 27 F5 2E 89 21 EF 37 D9 06 A7
 93 41 3F 9C 75 4B 7D B9 A0 B7 81 97 14 DA DC 3D
 F7 67 A2 41 B7 BF 43 9D F1 F6 0D 96 B3 AA A9 84
 CA 4F 53 B7 98 56 68 28 AB 9E 53 16 AB BC 00 E6
 9A C3 0A 0E 83 41 A4 52 6A 2E F6 49 D0 33 43 73
 15 30 D3 F3 43 10 2E 8D 3C F1 79 F3 85 42 FA B6
 93 81 BF 54 E0 23 6F 33 DD EE 5B 7C AE AE 72 B3
 D8 5E 1D 76 E2 6E 84 4B 9C F2 25 EA 47 A3 93 28
 4D 88 97 EF 5C 24 B6 22 04 95 9C 22 A7 26 78 C1
 17 6E 6C F1 51 74 CF 11 84 85 24 DD 0D A6 D3 A5
 95 BD E0 C2 3E B1 9E F2 99 E5 39 F7 8F 81 7B C4
 25 AA 35 7B 40 E2 6A 9C AB A7 BC 69 BE 13 A8 81
 40 D0 B3 58 06 5D A8 14 4D 59 FB BD A6 62 8E 49
 FF E9 C5 05 6B 9E FD D1 42 63 D9 27 4A C9 47 0A
 2F 22 EA 11 EC 88 68 05 32 EC E1 51 33 7F FF 79
 08 44 D2 9B D4 EE 6E 7D 1B 6E 19 0D 08 9F BD DF
 91 C2 88 D3 6E 85 DE E6 83 B2 07 03 52 0A 77 DF
 D6 97 35 32 6A EF DC E2 F7 00 99 12 37 BD F5 73
 38 66 A2 D9 1D 13 4A B0 4C CA 94 46 11 A3 C7 25
 20 40 76 D8 2E BA 08 6B 92 1B 8E 9B 27 2C 7F 7B
 46 3A 98 9A 21 B7 67 9C 79 92 F8 76 6A 46 AA F2
 B6 1B 65 DA E9 8B D8 61 A9 02 91 5D 3A 27 78 EE
 95 9D A2 2F A9 48 E1 E0 91 B9 D8 EC 38 39 AA 74
 DE 53 38 22 18 E9 FB 2F 80 D8 31 3C C4 E0 14 74
 08 84 99 F3 6B 1A 2B 93 8D 1E 3B 34 98 38 14 C0
 DB FF F9 A6 1B D2 46 81 FF 39 5F 51 D1 82 14 BB
 53 6E 9A E9 26 8E 6B 6B FD 6F 68 2E 79 7E A0 80
 E8 24 A3 83 38 01 73 9D 13 D4 9D BC 62 70 AC 7C
 87 AE 83 F5 9B 02 4C 27 7D B2 1C F7 71 49 DA 1E
 C5 4A 9E 12 23 6F 6F EB 83 39 B5 56 42 69 8B 31
 FC 4B 3D D8 90 42 DA 56 31 E1 47 7D 47 3F 83 A6
 B8 C1 71 A3 DF 96 5E 56 94 07 9B 89 9A 08 06 21
 1A 1C 2F 41 10 1C 81 D1 3A 1F 77 9E 2D D1 85 7E
 F1 3C 61 2E DD F6 3C 13 4C 0A CF 0B D7 AA 81 A6
 BB 7C 7A 1E 31 C3 E4 C8 CD 46 1A 24 D8 04 80 7A
 03 40 80 83 2E 94 72 A2 E5 A9 73 C1 CF 3D 5D 38
 1F 91 70 37 02 78 91 F7 55 4B 1C 0D E6 1B B8 E3
 65 FC 22 E8 8F 4C D7 A6 A3 6B F0 4B F1 C9 C4 68
 64 7C 2F AA FD 44 0F 97 DD C9 2E 0F A6 F9 11 CF
 03 4C A8 5E AA BA A6 92 94 F3 70 49 DA B6 38 CA
 20 54 BD 2A 5C 6F 5C 50 26 50 38 D2 B4 86 E9 F9
 70 BC 01 67 05 65 AA 0C AF C7 A0 B5 73 47 92 38
 A0 A0 95 FC 65 15 FC 95 01 98 2A 17 6D D3 92 1C
 F3 66 52 7C 9A 05 F0 92 F3 97 A7 DB FB 43 CC E3
 81 3F 3F 5D 90 B5 AA 31 0D F8 63 62 85 13 7A 2F
 29 5A 0D 0E 0D 68 FE D0 04 57 95 ED 8A A8 FF 4C
 3D 91 23 0A 90 BA 1C 55 AD B3 A4 E0 9C 5D 24 9D
 56 4F 79 2D 56 E0 DA 17 15 A2 6E 3A D3 04 18 FA
 8B E0 C2 CB C6 C2 6B BC 0A 23 4B 41 D4 99 43 81
 B4 28 FB 0D 81 E8 32 18 62 CC E4 20 92 34 03 13
 1B B9 F1 00 78 80 D3 5F 17 8E 2A 31 2B 7D 01 14
 24 B0 D3 98 67 9A 4B 27 F9 05 10 48 9C 13 7B 29
 D8 31 E0 26 08 F7 F9 26 E5 41 D3 E7 79 8D FA A1
 77 7D 4D 8F 67 4C 78 4E 26 17 3C B3 81 0E 7A 82
 DF 94 FC 58 EE 1B 21 41 94 6E 73 FF 4A BB C6 3B
 E8 2D A5 A5 A6 50 A3 50 92 45 7A 43 EF E5 A3 8F
 A2 8B A7 23 48 55 3C E1 ED B6 30 F1 DE 05 43 91
 68 DF 68 20 03 72 A1 18 4B F0 3F 0C 8F 8A AC F0
 11 E8 06 C4 46 86 BF D1 CC C6 6D A7 AE 73 B8 DF
 F8 A4 93 A1 92 6D AD FF 61 69 9D AF F2 30 E3 2B
 74 95 6F 63 22 5B 03 A7 46 C2 71 A1 FF 6D 4C F4
 09 1C 42 62 F4 D1 CF C4 C6 F8 87 98 20 AA 7B B3
 9D EA 15 08 51 28 11 68 FA AB 09 F3 2B 0E 7D 40
 FD B3 42 6A EE 91 F8 51 5E A2 9F 68 A8 75 35 F6
 D8 E3 40 B5 C4 DC 95 7D 05 2F 60 96 9D 37 C5 99
 18 9E 8E A6 82 3A 48 1F 89 25 AB 1C C2 3D 16 8F
 E2 97 59 A7 9D 46 4F E6 30 83 C0 45 AD 3B D9 4F
 6E 36 16 0E AD 6E 8F E9 B9 AA F8 E0 9D 58 47 81
 AB 5E 59 0E 32 33 B3 F9 91 F6 2E D9 6C A7 1D 5E
 C5 73 0A B3 37 E3 86 73 BB F9 73 7F 6B B2 9B 7C
 49 EA 38 9C D3 63 40 3C 32 B0 92 74 AD 9D DC CD
 6A 6B 60 AC 8A FA 19 C3 39 99 2A 27 A5 2A 0F 54
 E7 E0 80 03 51 9C 64 14 00 07 ED 3C 04 30 23 7D
 65 A9 6D 58 90 C7 C2 A2 47 91 E7 3B C0 8D 31 3E
 7D 96 A7 BF FB 00 0D D5 2F 66 F3 BB 6E 97 9D 19
 CE 4F 3A 1E 4E D7 01 B1 6B 93 B0 8F 84 DB C5 2C
 35 5C 22 52 E4 FA 5E A6 E9 4F 9F 21 59 5D BB 37
 8E 9E CB CD A2 B2 96 F4 48 19 AF 5D 3D 97 CA E2
 9F 57 C6 6F 07 9A ED 9A 30 24 3E 13 7F 26 B4 F8
 14 FF A4 26 1B DF CF 0D 84 2A 85 51 B4 DB FB 31
 55 09 05 F2 4F 13 3F 83 F0 45 82 E0 BE 4D 8E F2
 66 5E 9D 75 02 DE A5 53 52 F0 71 2A EC FA E6 46
 7B 4A B2 E9 5A 5C 8F 18 F5 7F 0C 12 07 4C 41 B7
 80 58 47 E2 56 B6 44 62 55 83 D6 BB 38 F3 3D 9A
 CE 56 AF 72 30 01 44 2A 69 56 EE 4C 23 9C E5 5C
 D4 B3 05 42 61 1F BD 34 45 71 9F E2 09 44 40 B5
 02 DF B6 9B D5 FC AF 7A F4 DC CD A8 5D 0A C1 2D
 33 4C C9 2B 66 05 17 26 86 A7 DC EC 73 1A 9F 5C
 63 CF 25 C2 F6 1B 34 43 73 8C C5 C4 A2 28 DE 79
 31 CC 32 91 33 C8 17 B7 CF 11 AA 2B E5 67 6C 88
 F0 A4 63 FB 1A DA C9 86 18 C1 74 B0 8D 57 97 5B
 0D BD A4 C6 DA 6C 76 5E 0E 69 DC 68 E5 42 8D B9
 5A 98 FF 1E 64 15 29 9F AB 97 83 4D 7E C9 F0 CF
 3F 52 A4 EB F2 06 8C 83 E2 A3 26 D1 58 17 B5 E3
 72 86 C4 35 08 E8 DA D6 76 94 7A 1E 47 4C 85 80
 B8 89 1C D4 28 34 6A 40 ED D3 7E 56 17 66 65 98
 8D F8 1D 05 9B 3B 26 A9 9C 02 92 FB 44 36 28 AE
 A6 42 86 8D DC 03 0F A9 5B 36 22 F7 84 A2 B0 99
 4E F5 54 69 17 AD F1 C1 B6 6E 95 7A 01 77 87 E7
 2B E5 C8 D8 48 1E DB C1 65 FD 71 F6 57 23 B2 E0
 2E F6 83 79 F9 13 45 58 18 BE 17 99 27 F1 80 31
 0E 6A 3B 96 9F FB DB 0F 01 73 B5 50 82 89 22 0C
 E7 4C FE 60 B4 84 B5 6D 74 CD F7 04 6B 0E E6 C3
 A9 36 B1 A9 47 EB D6 36 77 FD B9 91 C9 87 BB 9B
 A0 79 4B DD F5 66 3B EA 63 A8 A7 AC 3D 8B B4 56
 C2 4B 47 CA C5 DC 66 FA 3C 67 94 66 A9 6C 3F 32
 22 A3 E4 9E 5E 97 F8 2E B9 ED 4D 8C A0 CA B2 21
 0E A6 DE F4 0D AA 16 2D 20 EF 8F 52 A2 05 9A 92
 6B 5A 9F AE 39 E4 92 5F 73 19 07 B6 A7 2D B5 A4
 D9 37 F0 FE 5B 9B AA C7 E3 69 1B 80 0D D8 11 2C
 8E F2 A8 7B FE 77 95 68 61 CF 76 30 20 31 E6 E6
 67 F2 C2 43 48 22 66 FD 97 C4 5C 1F 56 7F 34 CF
 D5 A1 F3 4F FD D9 90 D5 04 75 BC 99 49 78 76 DC
 81 92 2F 62 CC 57 CF 18 ED DB 61 98 F7 33 53 C7
 7A 8F B9 22 B2 0B 7C 12 D1 87 D1 F8 6A 35 88 FA
 F4 34 DC 92 F8 DB 0A DD F9 97 00 6D 0F 05 43 41
 A4 3E 40 6F C5 7B 4F 08 EF 3D 4E CE 7E A7 02 99
 1F EA 3A 87 23 FD 06 73 84 DF 0E AE 56 8B 4A C5
 76 75 9E CA 18 DA FB 75 5A 48 1F B8 52 39 5A D2
 41 40 61 45 50 3E 9E BE 58 69 D4 74 3A D5 38 A9
 F2 9E 96 1F 06 CE BA DF 87 44 93 89 BB D6 F5 3C
 47 21 26 1F 1A 9C 10 10 44 58 1D E7 A8 92 F7 1D
 04 4D 21 72 6B 5C BC E7 43 23 14 03 57 2C 03 FF
 DC 91 9F 57 72 08 A8 ED 9F 92 E4 9F 85 00 8F E7
 03 1A B8 36 EF E9 B3 B4 A9 1C 11 8C 00 36 CB AA
 64 16 63 29 52 75 22 D4 29 2A 23 66 0C E9 CF 06
 34 EB 02 79 A1 BB FA 31 52 B8 52 CA 16 EB 95 B3
 5E 91 99 D1 8E 7D CA 7D E0 1F AC 1D B9 84 DD EF
 7B DC DE 8F 77 1A 76 A3 5A 0F 80 28 68 3F 0E 9E
 B6 E6 F1 89 6D 65 84 D5 79 D2 05 2B 47 68 C7 90
 F2 49 0C 88 4F 66 E8 C8 5B 96 EE 98 A8 C6 14 BD
 AB 7A AE B6 56 3F 33 63 1E 4F F2 4C BC 8D DA 59
* End 2550606466 113046816