* LTspice Encrypted File
* 
* This encrypted file has been supplied by a 3rd
* party vendor that does not wish to publicize
* the technology used to implement this library.
* 
* Permission is granted to use this file for
* simulations but not to reverse engineer its
* contents.
* 
* Begin:
 EB BA B7 19 76 1A 29 B8 56 89 4D 35 DA 9E 04 6B
 5D B7 59 6C E5 56 D7 0E 18 98 64 DF C0 5C 22 A8
 CF 24 91 34 F0 44 12 27 0C 91 6B 37 55 2F D1 BD
 DE 9A 2B 67 5D E5 70 EF 3B 22 8C 34 64 BE 74 DD
 77 05 A9 E5 48 D7 AB 2F D7 4E C2 F4 AB F1 C1 3E
 F0 8B F9 C6 77 A0 6A 12 12 E3 93 63 17 BC F6 64
 18 E3 F6 31 D5 9C 29 6C 4C 0D 73 63 58 9B 1D F4
 65 CC A1 54 E5 EC 52 FE 01 39 67 B5 B6 42 C2 75
 21 72 AB 49 1D 06 80 E4 35 98 97 53 A9 2F F9 EB
 E5 68 3C 62 35 24 07 CC 18 F5 C9 D2 7E 2E 2D C9
 1E 5C 36 00 E2 83 15 84 F2 EF 92 7B 04 42 12 26
 C3 A0 3F 66 C3 48 DF 9D E1 38 14 0E 9A 6B 19 4B
 D9 05 D8 58 8B 5C 80 A3 2E 4F 6D 14 60 25 34 15
 EC 2E 53 84 FA F6 02 76 BD 6C EE 7A 21 C4 4C 8E
 74 DB 9D FC 2D BC 16 46 50 41 EE 4D 8E 1E E6 73
 BC 9C BD 15 68 AB 36 DD 4C 45 B9 9A EE 50 48 E6
 F6 21 C4 5E 47 DD BF 5A 5D A1 C2 79 4E 36 E7 13
 62 86 7B 4D 10 14 65 63 FC A2 DB DD F9 D1 06 4C
 C7 89 C6 56 60 E5 77 B5 C2 3A 1C 3F 33 7C 59 3A
 DA E0 55 64 0B 53 49 37 93 38 2F B2 9D 38 2E D7
 5B 21 63 7B CA 63 F2 56 3F CD 07 3D 99 41 6E 1E
 17 DE C0 6C 33 56 A3 37 29 D7 F5 A8 C7 FB 95 1F
 A6 F6 10 D4 86 CA 33 08 DF FA 37 6C E3 46 62 93
 9B 32 71 73 E5 69 93 41 D4 04 55 CF 4C BD 3C 6E
 C7 C1 49 AE 44 F0 C1 07 05 59 08 71 B9 A2 FE 4C
 0C 4F B6 9A DB 74 0C E6 B7 5F B6 FC EB 5F CF D8
 4D 93 89 69 54 07 63 F7 F4 C1 95 08 0C E7 05 5D
 50 24 8A A7 3F A3 84 65 C6 EF A3 B2 55 47 46 06
 1C 8C 0A 49 A4 CB 0B B3 3C D9 F8 EF B2 BD 18 9F
 88 B0 D4 BE 2E 83 E1 A7 72 A4 43 06 39 5E 3E 4A
 5A C3 4B 91 49 D2 52 5E E9 7A D4 78 FE 65 07 F6
 C9 3D A5 D8 21 F1 AE 3D 8B 29 0E CD 85 F0 4C 27
 1E 84 EB 7C 1A 2D BA 69 9A E5 33 20 04 34 86 F9
 22 25 C2 E6 39 79 EA C4 56 43 F5 47 5C AF 63 C4
 2C 75 AD C8 7C 11 DF A6 A4 72 F0 B0 0C 36 BC CD
 9B BF 39 D6 61 91 EC B7 53 28 84 C2 98 28 9D 76
 0F 99 7C F1 C3 EF 94 35 91 BA E2 38 C4 F2 FC 61
 3E CE 6B 57 33 63 FD B4 52 17 6D 43 4A B2 A3 94
 93 3D 81 15 17 06 3D 2C A3 64 53 9C 63 09 99 5C
 93 C4 3E 2B F1 05 4E ED AE FD 85 E7 67 4A DF 72
 47 C5 77 BA 25 6F C8 1A C9 F2 80 55 08 EF B8 52
 FD 13 45 98 6D 62 16 D8 45 DE 96 25 80 AD 8A A8
 6A 96 D0 DB DF 86 B5 EE BA E0 67 E9 7B 12 14 5F
 12 9E 37 7C C6 7C 16 40 60 98 1D 3A 67 6D 69 E1
 EB D2 00 DF EC 9D 62 AD DD 63 6A 74 97 99 F0 67
 BA D6 E6 7F E2 0B C6 0B A5 F3 23 57 5F 49 36 02
 13 68 D4 0B 18 78 C7 13 61 64 59 34 09 76 D9 05
 78 5F E0 23 ED BB 95 0B AF 83 70 53 47 60 37 16
 BE 55 04 15 19 33 3B 2B B2 FC 8B 60 43 13 18 D7
 8D 53 B2 A1 D0 2F AF 80 C9 C5 B3 62 11 AA 08 7F
 20 57 48 E7 9F 8F A1 09 65 57 E8 C7 61 F5 1E 47
 02 EF EC 6D 8D 0A 43 0B 35 4E FF C2 8C 29 DA 2F
 47 95 CD B8 20 7B 9A BD C7 87 7F 88 F2 C4 86 7D
 31 C1 39 3E 36 F4 EE 3B 68 9A 0E 43 74 4F F7 29
 21 F2 36 2B A1 F9 67 E3 32 90 EF DE C2 88 2D AC
 6C 46 F9 BF F7 CC 9E 50 1C A6 4C F9 40 88 F4 96
 FD 50 0D 15 D2 34 08 4B 01 70 A0 E6 57 A8 59 67
 B1 B9 7F 85 A5 25 EC 89 91 67 E5 E8 96 02 3D 63
 8B 3F 1E FB D5 3D F8 A6 FF 43 4D 7D B3 AC 8C FC
 FA 09 7F E5 97 7B 13 67 65 FE F5 EA 76 18 EA 3E
 F4 91 6F F0 61 42 34 98 F4 9D 06 17 F6 E9 F1 37
 66 70 26 11 05 E0 58 60 62 83 CA C7 8E CF B2 0F
 E6 AB A1 0D 0C 7D 22 77 44 C1 A2 1F 85 4F DC 15
 D2 08 00 0E B9 F8 11 3E AF 13 93 3D B1 89 DF 3F
 5F FC 9F 5C D3 A4 E0 C6 97 1D FB 65 C7 2B EB D8
 BB EB C1 64 F0 D9 48 74 63 8B 4F DF 67 64 70 C6
 20 76 63 8E 0A A6 04 66 BE 93 9A 70 A9 DA E1 34
 5E D2 2D 11 53 D0 C0 EE B7 0E 28 11 06 3D 55 5B
 D1 02 F8 5C C9 11 B7 2C 6D D2 8D D4 99 6F D2 4B
 C2 88 74 AC 26 B8 E8 7D 97 5D 03 61 04 72 01 84
 5F A8 62 03 9B 44 FE E8 80 16 53 2F FE F5 23 58
 05 24 69 87 9F D5 C2 05 6E C4 EE F6 2F D0 8B 32
 C6 46 5B 90 66 A3 17 41 2C B2 16 96 AC B6 C0 BD
 46 2D 74 A8 3B B6 F0 9B 0F C8 FF A1 95 E0 3A 3F
 0C 73 E7 9D 78 AA 5D 6C 5E BB FD 5A 41 21 01 9B
 A4 2B FF 53 1E 12 C8 5E 3E 19 56 D4 72 4F E5 61
 AE 60 AE AD D8 38 0B 4A B3 60 82 69 4D 68 2C 76
 E5 63 07 B5 A6 BC 0B 18 00 78 A1 BA FF FE 01 AE
 3A 3F D1 B9 86 34 02 CE 1A 6D 1C 9C 4D 79 05 44
 03 7C EE D6 19 FD 12 2E 4B DF 8A BF 34 3C 24 66
 E2 BD 30 32 0C C3 F5 89 D0 C9 90 6B 74 C5 2D 89
 2B 90 93 FD 28 32 44 5A 60 17 A2 BB C6 A1 28 49
 93 55 41 99 8B 06 36 2B AD 79 EF 75 13 F5 C3 1E
 DA 2A 5B 5F E1 AC 1B 32 41 0B BC 8A 24 BE 17 5B
 4F A9 83 BF 9A 02 2E 5A 42 79 12 BA 31 02 0C B7
 E8 D9 27 BB C1 D5 E3 50 69 89 C9 95 38 36 A4 AB
 7B 5C D9 D2 27 AA 4A B8 58 C3 4B 1F 01 CA A2 1D
 38 46 E1 DB C2 FD 52 8D 91 63 8A 07 8C A5 9F 5E
 E5 D7 9B AA E0 D1 94 E4 20 BB 63 6B 22 07 ED B1
 AC 98 7F 27 EB 8F 4C 9C 41 2C C2 40 56 F7 02 27
 00 0F 43 05 93 AD 51 E8 4D 52 7A 86 C1 4B 17 25
 DD 06 33 8B 35 9F 92 00 34 8F B0 9E E8 53 75 0B
 7E 5E F6 29 AE F3 EE 61 AD 6A 2D 19 4A 96 7C 41
 D5 86 49 FF 09 BD F6 F0 59 FF 7A 6A C4 3E AF 85
 CB 10 8D 74 1A A0 15 16 EF CD 0E 8B E3 90 CC 9C
 CF 5E 7B 39 61 83 73 6E 1F C2 D8 74 93 B1 13 3D
 35 7A C7 5C 39 25 B8 5B 23 1E 4C 21 C5 4A C3 32
 26 23 CE A7 9A C0 DC CD ED 10 B2 56 12 47 A1 EF
 6E 11 53 90 AD 1E 40 15 73 80 81 91 66 39 36 FE
 66 DA 0B 15 28 57 20 DE A5 96 C7 2E B2 41 CD 31
 4F 5B 5B BF 0B 46 60 5C AC 7A 9F C9 F9 3E 05 66
 54 98 BB E4 3B 38 DF AE 87 A6 BE 5A DA FC F7 0A
 6B D4 CB 2F 8C 25 C7 CA 51 15 3D F4 9D 68 4F E7
 44 EE 5F E8 94 48 A3 1F EF 6A FC 6D 08 74 61 63
 54 2B A6 F0 AE 28 59 6B BF B6 C4 FC F6 B6 C4 E7
 E1 4F C4 F8 64 BB 62 A4 51 94 1D 98 48 EB 28 36
 4C 21 6C BE 03 E6 9E 7A 82 FF FA 8B 2F A8 0A 36
 B2 DF D0 31 DC 19 D2 65 6D 05 15 D9 8C 2C 00 E5
 23 FD 88 7F 31 6A 74 F4 84 A3 BB 6C 50 67 58 17
 50 99 AD B1 02 84 40 E6 6C 22 94 FF 3B 11 CA DE
 25 53 72 90 25 B0 4D DA 97 D2 90 60 3C 93 05 DA
 13 AD 00 D7 E8 9B E4 13 F9 55 49 5B A6 0F D8 79
 DD E8 F3 5A 66 F0 6A 77 25 99 91 F3 2C AE 1F 41
 D3 09 63 A1 AA C5 B9 79 30 9F 2C 40 48 3C 91 D2
 CC F3 7B 69 F9 7A 46 52 53 A5 52 12 15 7C B1 4B
 79 F7 70 D3 D9 70 49 A9 4F 94 14 86 E1 12 89 C3
 DE 31 04 1C 92 8F 1C B6 FB A3 96 FC 0D 58 34 75
 FB 26 D4 8D A4 D4 53 DA 38 B2 66 1C 1C 35 2F C5
 48 E9 7A 48 B9 AB 49 6A C7 8D B4 4A D8 7E 7E 9F
 4D 84 33 34 D4 10 45 70 32 BF A5 A1 96 AD 15 AC
 17 1F BF C1 EB 52 7A 9B BC 9F 7A 98 BE DF AD 2E
 99 A8 A9 5A 57 F5 5A F7 8E F3 DD EB 22 08 A5 42
 DF A8 79 D5 20 17 32 D3 07 80 E8 09 B5 DC 5E 53
 DD 1B 2D E9 7A F7 71 38 22 8A F2 8C 65 D4 72 8D
 53 B9 5C 31 F0 21 6D 36 FA E8 8B FA A2 04 56 AC
 E5 DF A8 6D A3 3A E6 B5 7F 38 33 4B A6 72 19 14
 38 66 AE 27 A1 E6 25 BB BE 61 93 4C C8 D2 C3 52
 AC 7F BD B9 C1 7E 22 DC 84 47 E0 9B DB E7 E1 58
 C5 C6 20 60 9C A8 9B F8 BD D6 5E 28 9A 47 96 7D
 2A 56 2B 2A 57 32 56 84 44 E1 31 B0 DF FD B1 E6
 1D BC 6E 77 FF 50 7E 8A 40 0E 43 B8 51 28 79 29
 91 3B E7 E3 BD 0C 12 C8 05 40 2A 26 44 03 52 97
 C2 F8 2E 35 EF CA 58 8F 1D 05 5B C2 D6 7E 63 39
 02 07 01 FA E7 25 9F 3D FE 02 B1 B6 3E BB 06 B0
 0D 69 68 FF 1C 9E C9 D2 E2 4C 0F 04 43 C9 38 A2
 95 27 CC B5 D6 4D 8B 56 E3 B7 8B 29 66 A5 C2 52
 71 F3 F5 14 8A 89 A6 FA 94 5B 14 68 D0 4C 5E 31
 FB BA 37 CE 9E C4 52 1F FB 46 71 1E 0F BE F8 45
 F9 30 16 F8 4C 37 9B 48 D1 FC 94 BF 6F E6 AB 62
 D9 27 CA DB A5 D3 17 B7 8E 45 17 53 E5 78 FA DE
 3A 60 29 C8 BD 86 0D 90 69 7D 50 BC FD 99 99 8B
 0D E6 14 50 4B F8 92 89 10 AE BE 75 EB FF 81 BF
 B0 47 7C 4F 49 21 83 03 43 84 CF 06 12 98 19 C5
 D4 34 9F DA 78 7A 92 76 98 93 4C 40 0C AF DF DA
 F8 73 13 2F 81 80 0A 19 2A CD 46 C6 3D 18 63 82
 36 B1 6D 1D 83 D9 4F 5F F8 0C DE AD 69 30 62 3E
 5C 63 1D 6F 6F 4B FD BA 63 D1 C8 D6 2B F9 0A B9
 72 A1 FD 83 E4 77 75 E7 32 BA 86 2D 26 1A F5 60
 2C 2D C3 A2 58 46 C3 15 16 0C E6 B1 FB 02 5E E4
 71 60 52 5B A7 AD 39 AD B4 B8 AB 4C 8F EB 82 72
 60 FE 90 B6 F8 37 E0 EC 2E C0 EF 09 11 AB 03 F4
 12 6A 76 BA 3E 4F 14 FA 81 6A 9D 1E 20 CA 12 9A
 14 61 D8 A3 DF 6B 9D 4B C4 6C A1 8B 5B F6 BC D2
 A8 7C 72 C8 EB F0 C9 55 CE 89 D1 B1 62 6C 7C 5F
 C8 DF 6E DE 25 FC 6C 25 82 D8 13 6F D5 1A B9 F2
 FE 4C 89 9F 3A 49 8C 6D 11 60 2E 2F 38 EB DA 17
 04 92 05 A5 DB 3B B4 75 BD C0 6D 8F 05 D1 82 C4
 59 1E 6E 53 EE 0C 61 61 B4 8A 9A 7F 55 44 E6 8D
 4E 66 79 22 C5 43 55 BF D7 BF D5 F3 4D D5 42 19
 B1 97 60 6B 69 16 F6 AC 13 74 1B FC AE 49 59 AA
 D1 09 78 B8 DE 60 D4 26 60 8E 60 8E 1F 4C 9B B1
 26 2A DC 6B 3B 59 B9 25 7D 04 A2 6F 64 DA 3B 0E
 AF 2C 0A F3 75 DB 7E E4 DE A0 C1 FC BE 4B E6 37
 B0 58 7A 0E 3C 43 E5 DB 4F 4F 0F 23 01 B9 CA DF
 08 C3 A6 FC 2F 0B 8C 66 7C 43 BF 94 66 72 44 85
 8C 63 D7 28 57 D4 52 3E 3D B5 50 9D 66 98 6D DF
 4F 10 FC 35 CB 80 DF AF 0A 57 1A 66 04 42 D5 A4
 19 7A 27 54 A1 74 62 B4 D1 B6 1C 42 A1 A3 F1 20
 78 7F B2 12 78 75 91 76 2A D7 C4 58 C7 AD C4 E5
 A7 4E 1D B2 0C 4A 11 CE 2B 92 E7 6D DD EF 43 88
 83 A5 C9 88 A5 40 27 DA 4B BA F9 8D 42 D6 57 00
 0B DD CF 70 D7 B7 E1 16 CF D9 1E 14 29 BE B5 DB
 E1 34 D5 42 11 0E 39 BF 06 70 BC 07 3F 92 6E B0
 44 D3 83 F7 F5 20 E6 28 5C 41 09 93 82 F4 24 38
 C0 4E E2 AC E7 25 1B 8D 1A 4F 00 D9 DE 67 64 3F
 3D E8 5B 56 5A CF 53 6C B7 4A 2E CF 98 C3 90 94
 A2 EB F6 35 FB DB 5E 55 1E F9 48 18 94 20 EB 40
 80 8E 70 E1 96 65 32 A4 10 20 CF 1B 2F 5A 17 2D
 00 07 A8 C0 DD 07 2E CA A5 21 62 0D F1 9F A9 44
 15 80 B2 E0 3A 21 7C 04 8A 5C 6B A6 15 7B 59 62
 00 D7 5C BC DC AA 03 D7 56 0B CB 3C B8 CF 77 2D
 A6 66 2D 22 94 57 BD CD 3D 9E 11 7E 4B 0C B3 4C
 EB 65 73 50 00 7A 8A 41 F2 14 A5 0F AE 89 22 B2
 F8 C1 16 A3 EA BF 02 F8 B5 5E C4 24 33 A3 67 0B
 FC 52 AC F9 0D 77 D6 1B DE A0 E7 D6 45 67 6D 2F
 39 E4 98 03 91 F2 BE DC 74 B5 8A C9 1E E7 2F 87
 0E 38 40 B4 79 F5 F7 66 35 CC D3 95 A1 1E 43 80
 7B 0F C1 60 3B 04 DC 68 37 C3 28 9A 36 32 2F 8C
 87 CC C7 39 C3 79 9E FA 84 27 11 DE 22 37 0A 00
 0B CB BB A6 17 1B 56 FE 75 82 4A F8 7B 4E A9 5F
 60 EC A3 DE B7 DF EE 0A 15 4F 56 CF 18 BC EB 3F
 26 61 E1 C4 B5 1E F8 0F 59 72 1B 51 3D A0 34 D1
 B3 26 74 B6 1B 48 14 4B 91 C0 44 BD B7 53 23 13
 4F 9F 74 2C 49 A8 FF E7 F7 A4 1A 6A BD 34 D6 0C
 BA 27 91 0C ED 6D 57 A9 F2 D4 0B 5A D6 33 BD 3F
 DA E9 A2 49 62 12 91 DC 55 EF 96 42 C7 13 D0 E8
 90 00 BE 35 76 DB E2 8C D3 75 47 1C 49 3B 7B 5A
 1C 81 C0 4F EA 22 88 71 67 95 08 C6 97 95 80 E8
 3D DC 85 FD 41 1D 83 90 21 B7 A2 AF 92 81 B1 21
 30 0D DB AC 87 79 DC 5D F2 C7 B7 B3 8A B0 E3 32
 93 88 FA AA 57 12 6D 66 03 A9 37 44 45 3E 94 D9
 92 D5 54 6F 4A D0 D9 9C FB 55 38 1D 8A E2 6B E7
 42 04 81 15 16 A8 6F 7A D0 EE 95 EE 71 17 85 8D
 B9 9A 85 C1 E6 E1 03 B4 D4 B9 F4 54 7E 50 8A 37
 46 69 D1 C2 68 80 A8 37 06 E2 49 DA A2 88 06 FA
 9B 10 A3 F1 C2 70 53 D0 56 10 62 3A 96 5A 8F 58
 3E C8 F3 64 A5 E7 29 38 B6 4B A0 AA 72 48 1F 12
 EE 7D 1E 6F 3F C9 86 17 56 4F 70 03 19 3B B3 FA
 8C ED 76 74 16 88 E4 76 0F 36 88 1D 39 0E 13 47
 87 8C 44 EE 0E 2A E1 27 0C 77 82 30 39 3F DE 9F
 1A 82 1E 3B 1D 75 3A A7 BC 20 52 5F 9D C1 2E 97
 94 11 78 93 A9 21 D5 96 DD 87 4F 1A 87 D9 13 9F
 1A 71 38 01 7C FF 7D E3 DA 24 56 8D BF 1D 07 E2
 90 74 A7 8B E6 AF CC 83 11 06 3F 51 3C A4 45 EB
 6C 00 F7 37 E8 15 57 5B 23 F5 3B 82 8D 46 B7 E7
 36 CD 1A 8F ED CE 90 CB 20 D2 D8 3F 75 FD 90 E7
 CE A4 94 F5 D9 87 72 FD D2 F4 CB 99 A8 93 DF C2
 8F 35 02 86 94 B5 4A 36 37 85 2A 43 F4 77 64 A4
 28 19 A0 E9 6E 52 7D 91 FD D2 69 BE D3 46 EF 30
 68 97 BD 03 D4 85 88 99 24 11 4C 23 EF DA 0E EF
 AF AA EC C4 78 31 06 DA DC E6 7D 68 EE 37 23 97
 C8 F6 D0 E8 29 8D E2 99 E3 0A 38 CD 57 F7 A7 C6
 4D F6 E9 9B 74 96 BE 90 AF BC C9 2D 51 62 44 FF
 9F D3 96 A5 F2 0E 4C 35 06 B4 39 5F EB BF A6 38
 28 71 D3 8F 78 27 0D 8C D6 8F 79 65 CB 79 E7 CB
 7A A4 EC 82 E5 14 01 9D 3F E2 1C C3 0D F1 7A EB
 34 38 AA EB 35 1E 5A 6C B2 A0 E0 F5 F7 B9 F3 C1
 C2 67 94 01 9E CB DD BE 08 71 1C 73 FB 8B 7D DC
 8D 49 53 7B 7E 4C C0 C6 CF A6 63 09 2F 0E C9 3D
 49 B4 8D 64 13 CB A5 1C 88 3D 20 FA AC F6 6B CA
 F1 85 6C 56 BF BC 6E 22 93 15 2D DC A2 17 FC 99
 03 1E BC 56 A3 61 03 73 4C 01 1A 4C 92 9C 2A 5E
 FC A6 25 88 6B D2 A3 88 2A 26 39 D5 C2 7B 1E 41
 86 CA 48 70 5A DB E0 68 1A 2F 56 A8 C4 DD 50 88
 BE C0 9E 0F 62 33 FB 5C E3 13 13 5A 88 8D 05 60
 32 3F 21 8E 0A 5E CC AD 53 54 AF 11 CE DF 18 29
 51 F3 EC 8B 94 AC 53 DA 33 B7 4A 73 3E 5B DD 17
 56 09 0A 15 DA D6 69 26 83 00 D1 31 13 3A DF 40
 43 D5 13 39 8B 62 D3 4D 9C 59 5A FB 57 FC ED EB
 3A E0 A0 60 4F 8A 60 36 C0 4E 42 4B 75 21 89 C3
 28 2B 13 86 C6 15 FA 0E 37 86 4F 65 CE D3 E9 2A
 EF B9 59 0E 0D 6C 55 07 31 66 E2 19 4B BC D7 0A
 4E 10 04 DB 95 16 2F 2B B3 7B 29 F9 51 07 0A F3
 1C CF 53 96 61 CB E6 91 E9 10 6E 04 4E E0 CE 35
 5E 3F 06 00 F9 5E 2E CC 07 FA 78 B1 CF 4F 32 76
 92 AB B5 92 9C BC 30 C7 60 AF 93 13 AA 2F 18 13
 48 F4 BC 52 44 C5 70 C6 F1 AB 56 60 CB AE 16 BB
 C8 82 CD 6B 48 13 74 3E 9A 2F B3 56 B8 8E E2 8E
 F7 FB 2D 2B F0 67 C9 D6 C7 5C C0 2E 2C B7 1A 64
 8B 45 B7 32 B4 B7 04 6A DF 5B 5A 8F 9F 67 E3 AB
 CB 04 04 B1 09 CC 26 2D 5C EB 14 B3 04 27 C8 25
 2C 0E C8 58 0F 7C B4 9C F4 78 E8 EF E6 B0 85 03
 B9 6A DA 00 88 BB 93 CD 67 9E E6 C0 8D D1 62 4A
 4E 45 66 31 A5 14 80 D3 AB F4 1D 1A 6E A7 B7 01
 DD 60 80 F0 A4 97 B2 6C 2C B1 EF FB 88 4F 2C 06
 EF DD 7F 48 01 CD 72 52 65 DF EE BF A1 87 E4 75
 57 67 EB C6 76 D7 49 78 37 BB 85 F5 49 F9 E0 C3
 C4 F7 76 7C 25 1B 15 6C CC 13 49 D9 B9 E3 DF 64
 11 C9 13 57 63 5F 5F D4 B6 45 1E 5E 0D 24 6B 99
 BC 87 A0 3C 8C 87 39 73 D5 91 67 53 D6 AC B7 0E
 38 E6 86 6F 3E B2 B8 16 B3 E8 69 C9 A5 B1 1F 63
 C4 35 04 60 20 00 4D D9 5C 39 84 CE 39 67 AA DF
 DF E5 CF 72 46 5C DA 25 22 62 5B B0 58 18 A3 6D
 2F E8 75 17 FD A7 E5 4C AF 4B 79 5E A6 39 5F 95
 A0 7C 2A 7E 16 CC EC 71 C9 04 60 31 C2 63 1D 92
 6A B4 EC 67 DB 28 63 F9 6A 9E 29 F4 F2 71 D4 47
 8D 14 28 78 7A 5E 7C 3B 71 33 8B 9F F4 34 64 FB
 67 F2 DB D0 DE 89 B5 F4 24 DA 3D 4C 63 87 90 8E
 D0 8D A6 77 94 7E 44 41 51 0D AA 5B 66 72 72 70
 78 67 B3 F0 FD 93 F3 14 66 BF 3C E3 67 92 FD D8
 88 D2 82 DA ED 04 4C 8A A9 88 51 B3 44 E3 3B B8
 A6 7E FD E0 FF E4 DF 4D C4 5F 3B CF BF F5 8E 82
 02 EE C7 18 7A 4B D2 5E 3D 35 B8 02 39 17 17 0B
 26 7B CD F0 06 62 87 75 E7 90 2D FE C6 0A 68 2C
 5E BE D3 57 2D C4 DD 3F D1 7D A1 08 92 2D 56 67
 F1 DD F4 86 55 BC E0 D0 94 7C D5 42 26 53 F4 10
 1C 23 7E FF 52 E7 2C AB 6C 97 30 AB B0 89 B8 85
 26 3D 22 B6 CB 80 4A 50 FD 6B A5 7B A0 75 3B 85
 9E E8 7B 1D 52 B7 5D 7E 0E 60 15 2B 6A 85 A6 7C
 EA 70 ED CE B3 2B F5 1F FE 16 11 90 CD F2 B2 0B
 74 3F D0 14 F9 CF 64 D9 85 C0 51 F8 63 9B 49 1D
 31 F6 9F B2 08 C0 37 2F 26 54 CC 5A E6 E9 01 7C
 84 2D 89 62 77 34 8A 5C EC 95 8F 65 F2 52 D2 4B
 2A 07 E1 36 94 78 85 C5 25 4C 72 B2 B4 6D 80 5D
 E5 8D 82 0B E4 16 6A 36 78 4C D2 E9 6F 56 F5 AE
 1D E5 EE AA EC 4B FE A4 CE E7 0A D3 A0 36 90 5D
 C6 7A 64 CB 4A 38 23 0D 75 D3 67 F8 90 16 E0 E3
 4C DE 7B 9E 63 91 90 E7 A1 97 6A 07 8A 9D D4 80
 44 BC 75 9F CA 28 CA 13 9A 91 32 1D F7 11 83 69
 DB 04 E1 04 04 20 36 BB 18 16 63 0A 08 A4 70 0E
 76 58 3B E4 AD 98 4F 4A 39 52 79 CA F7 0E 45 DE
 7C 13 83 18 5A DB 53 3B E5 10 4E 0E BE 7B 20 53
 7D D4 3E CB 07 80 A3 95 01 0C DE 77 5F 3A D5 CF
 8D FB C1 13 DE C0 ED B9 BD DB DF 29 5B 13 FB 25
 35 09 76 61 4F 60 11 55 4C EA 39 D0 59 E9 4B 6C
 C4 84 B8 6A B9 A2 93 3C 65 F5 69 68 24 16 3F 62
 AA D3 DF A4 CC 7B 53 E5 EE 37 93 34 1E 98 69 20
 F3 B8 0B CC E7 1C 5F AC BC D5 2A 3D 10 3D FD A2
 E5 6A C8 A0 0C 6E 3F E1 27 4C 71 CE 98 1F B4 9C
 1D 3A 21 3F 2E 32 81 F0 7E 6F 6A A7 99 8F D9 5A
 49 55 F7 50 92 01 B3 2E 73 A4 E3 5E 5E 37 50 82
 F1 83 6F 3E 30 83 90 9F C8 39 D4 E5 14 41 E5 BF
 89 A8 A6 8A 59 A6 EA 57 84 7D 2E 36 F0 AF B7 72
 65 07 7D E9 D5 5C 35 21 FB F0 78 8D 29 7F DA D5
 C5 93 CD A1 05 65 72 0A 70 FE C1 C8 12 5A 94 A0
 A5 5C 43 43 E5 B3 BA 82 B6 42 A0 4D 0E 22 5F 5B
 29 61 1F B7 C9 D1 E4 44 7C 18 F8 CE CF F5 DB 5A
 CC C3 70 31 45 7A EE 31 75 BC 51 D8 95 54 EA 62
 8A FB 9D 08 17 FE A3 C5 41 91 4E 4C 81 A0 27 67
 EF AE B0 52 20 16 C0 EF 16 36 8F E5 D8 66 51 E5
 B7 09 4E E9 3A 24 AD 9A 06 93 28 C0 3F 0D B8 61
 0B EF 1B 13 31 A8 C1 8B 0D 16 8D 1C 81 98 EE 97
 70 65 BC C8 14 B5 72 22 8F E0 09 93 9E D4 60 04
 D6 AE C4 98 B9 88 C3 CD 50 52 29 9D B7 35 21 A6
 20 E3 0B 9B 60 04 7D 73 45 E7 67 57 A3 0C F7 13
 9C 12 D3 B6 C1 88 0B 9D 3F 87 94 1F A8 A7 32 A6
 10 85 51 85 83 82 99 51 24 BC 04 D0 F2 A5 04 4D
 DB 5A 5B 2B 50 71 C6 CF 1B 5E C8 62 2B EA E5 2A
 46 B7 77 47 DD 5E 30 99 F7 48 F6 6F 7A F9 CA 6B
 43 0C AD EB 6C 04 44 54 72 55 94 9D FE 7B C1 DA
 00 16 1A 5C 2C 0A AA BB AB 5B AA 35 DF DF 62 E2
 C9 77 33 D2 68 AD AC 99 40 87 F7 24 1F C7 01 99
 72 EF 52 33 A5 C6 EE DB 70 64 5B 90 80 2F D7 F2
 BD 88 75 CD 35 02 AA 5B 64 84 79 0E 37 AE A1 54
 CC 60 21 AE 7B A9 13 A6 F6 5E DA AF E4 C4 4C 8C
 56 42 0B 09 29 DD 32 D0 B3 67 EC 5E 14 0A 67 DB
 AB 5E 08 DD 6C 36 EA FB B0 81 50 BB 67 85 D0 61
 FB D7 4E E3 D7 07 D8 9E 16 C0 B2 FA 7D A6 53 CB
 AE 0B 57 E5 A4 A8 F1 3A 53 DB 23 88 36 92 66 E7
 50 DE 6E 73 BA 54 7A 53 F2 3B 1E 4F D9 26 88 39
 70 B0 A2 0C 3D 2E 2B 0C 33 B1 3B 5F 31 F2 21 B4
 67 1D 90 F7 62 81 F8 CD 45 ED 7A 68 4F 69 CB 28
 58 0D 46 17 10 F2 D8 0A 1A 83 10 64 2F F2 42 51
 A8 9E 0F 3F F9 AF 26 75 7A 9C BE 0D 30 7A 6E 95
 AB 0D 54 1A B9 0F 0B 65 A1 5D B8 5C 92 D0 91 00
 3E AC BF A7 FA A7 67 49 7D 18 CB D0 CC 2A BF 8A
 46 D7 F0 15 FC 37 4C DA AD 56 DE F3 14 15 4E CC
 EB 05 0C 39 69 D7 FF 7E 42 C7 38 8D 74 FE 3F 2C
 89 A6 1F 12 E4 C4 E4 E3 90 99 3C B7 1D 7D 22 79
 C1 62 64 0F BE 9B 63 38 D7 3C 89 95 8F 8A F8 E4
 3D DF E7 4D DF DC 26 C1 68 72 E0 00 23 77 10 9C
 55 14 AD EF 45 65 53 49 E3 39 16 8C 7E 30 A7 4A
 D0 1B 46 65 6B 8A 72 67 EC 44 4F 23 23 94 D0 4C
 32 72 DC CA 96 86 31 9E 42 07 43 12 0F 8B 60 2E
 10 EA 64 C1 B7 6B 49 C2 16 3C 38 B3 0C 58 2A 23
 DC 4B D4 8F 64 6C 99 2A 9E 40 A2 BE BC FD 1A 34
 DF 93 05 41 23 40 AB 06 80 BF 4C DB E9 EB 0A 20
 29 E2 AF 16 FB 4B 34 E1 83 DA 9F 30 48 53 50 69
 11 4D 11 16 E1 DE BC 16 5A 51 7C 37 B0 60 CE B7
 E9 22 3B C2 4C 97 D4 95 1C FB 75 D4 F5 A9 F7 8C
 2F CE 53 6B 29 2B 47 F7 6F 57 8B 35 67 E0 E3 B2
 30 6A 09 67 71 98 48 D6 5D DC 1D 50 93 BA 33 C3
 B3 CA BB 30 DD 69 50 3A 86 0C EB 05 00 0D E2 97
 B6 A5 7D 55 D4 D0 47 01 7F 26 9D 75 C4 F0 F3 FC
 55 DF 18 4C 82 7E 6B EF 04 90 B8 B2 44 05 8D 92
 3C C9 C1 FC 03 FB AD 31 68 59 BC 10 D1 BF AD C9
 DE C4 2F 65 38 E4 4A 0F 5F 4E 83 6B 01 33 C8 E9
 3E EF 10 0F 87 3E E4 9B E0 ED FA 17 3A 25 75 3F
 4A C2 51 E8 7B CA 08 A7 5E CA 20 92 E6 00 2F 05
 EA FF 71 61 15 9B 07 4C 06 45 D1 6B 28 88 61 4F
 08 AB 08 1C 15 30 7E B4 5B 84 25 29 10 C9 8E 5B
 86 7C 64 82 73 39 46 CF F4 24 84 1D D3 65 AB 0A
 EF 58 8A 80 66 CD F3 DC 42 8F F0 16 44 71 72 89
 9B 43 5F 0A 1F 84 92 9F 75 E8 1B B7 4C F8 F4 8B
 F5 FA 71 E1 24 66 00 97 45 D2 9A C7 52 CA 04 40
 7F 7E 08 71 DE 01 CB 88 8B 94 95 A8 30 93 7C 9D
 5A 90 D5 01 44 9D 00 FF FC FC 10 44 CE 69 B5 20
 25 AE 7A 1C 39 56 58 71 49 83 F2 38 81 B9 55 98
 67 C8 27 29 50 69 84 C4 83 38 A6 36 C5 F0 A3 B4
 4B 11 3C A2 1B 80 78 04 C4 93 EF E5 00 14 A0 23
 4F 6E DD 24 C8 2A 43 2B F5 DB 6C 30 ED 51 BD 2A
 E2 FA 3B C8 AD 58 2A CC 4B D4 CB 9C 7F A0 36 63
 5D F1 42 55 65 DF 74 30 09 53 27 DB 06 2E 17 06
 78 14 57 3A A9 98 73 D6 D1 53 AA AB E9 02 3C 9E
 F0 3B 1C 22 09 F3 0A ED 8A BC E6 C0 AE 7E 77 4A
 34 D7 29 62 31 61 80 73 2D 46 9B 80 FC 18 66 23
 87 B9 5C A5 4A 93 DB F4 4E 16 12 01 8E 89 04 FB
 11 58 D9 40 B1 DB EB 05 62 A6 89 F2 4D 35 78 FF
 3C 5F C9 8C D7 49 56 D8 B7 5E E7 ED E6 BD CC 43
 CB C9 78 6E 20 64 40 E9 E2 5A B5 C6 05 2E 94 08
 49 78 42 67 A4 44 7B B8 94 31 A5 CB 77 A7 1A E8
 93 01 84 E9 4E 2C DD 59 07 A3 8A B8 27 3E 66 6E
 17 4B D2 92 1F 41 6C A8 81 30 3A 82 53 7B 75 01
 01 49 D6 C5 92 98 C8 D2 99 91 FF 50 3A 79 CB BC
 F5 21 AD 16 45 23 5F 1A C2 54 B5 07 98 3A 7F D9
 60 F9 3D 38 B1 93 8F DC 7E 4A B9 B7 21 F4 1A 58
 1F EE 6F D6 5A F7 4E 03
* End 1577080077 1871800796