* LTspice Encrypted File
* 
* This encrypted file has been supplied by a 3rd
* party vendor that does not wish to publicize
* the technology used to implement this library.
* 
* Permission is granted to use this file for
* simulations but not to reverse engineer its
* contents.
* 
* Begin:
 D8 34 7E AC 96 EF CA 93 1D DE 47 F1 F3 2E 38 89
 73 6D 32 32 B2 31 91 96 19 26 ED DA 57 C9 9B 99
 CD DB F7 9C A9 24 2C CA E8 37 BC 85 6D 65 82 1A
 56 65 1C B4 C7 96 98 7A 95 80 85 2E 28 0A 66 21
 6A 46 BB 7C 3F 64 C7 15 20 E8 7A A1 C8 3B DA E3
 1C 58 19 F8 3D A9 57 A1 0B 46 4A 6A BF 47 42 14
 84 D2 51 E5 43 0C A3 8E 1D C9 93 CE 52 A5 E4 BF
 3C 33 B2 59 E7 95 C6 5B A5 06 32 C4 08 B6 92 05
 1E 15 DD D4 D7 3F AF 77 CC 39 35 6C E7 33 21 07
 FF E1 56 C3 F5 B1 EB B3 E5 34 0E 33 8D 48 F8 F8
 EE E0 72 38 F6 DC E1 E4 32 8B 85 68 D1 1C D4 A9
 F1 10 4D 8A 9F 1B 2D 41 70 12 5B FB D8 0F 98 32
 D0 97 0B D6 76 F6 2F B2 28 E5 98 92 29 DD 81 37
 AF B1 F2 8C 80 6D 29 C7 65 FA 7E ED F7 46 7B C5
 9D 7D 60 F4 57 0C D2 F1 AC 5E E8 B8 AA 7A 06 39
 F9 37 DF C8 54 B3 44 DA BF E1 1E E9 70 7C D2 1E
 52 C0 96 86 EF 64 C8 68 41 73 BC 65 3E 74 69 FD
 C3 F3 9A 48 11 6F 9B D8 0B 11 A1 8A F2 C7 D9 0F
 0B 73 89 99 54 47 3C 60 24 C2 56 EA E0 B4 D5 C6
 D1 7B 79 7A 51 4B 69 21 4D 10 C3 02 67 49 B6 68
 AF 65 2E BD A5 EB 28 9C 79 06 8A E8 DC EE 8E CA
 5F B6 CD 26 C5 D4 93 7C FA 87 28 C5 15 5D 39 D0
 0A EC 44 7F 79 CE DC 86 55 C6 70 16 0F D1 CC 8B
 4F 0C E7 0F 35 73 E0 60 84 0D 8A E0 95 D2 AF A1
 36 DF 1D 14 A1 3A 61 A1 FA CB 84 60 3D 18 A1 2F
 3A 9F 59 92 9E 64 46 B0 A6 AC 16 3E 61 AD B0 E6
 0B 60 AD A4 3A 9E 1B 04 60 E7 6A C7 CB E2 DC D4
 17 76 08 E8 C4 83 E2 7C B3 47 99 41 A5 31 91 AB
 B0 94 4A 15 1F E7 EC BC 91 23 26 D6 B7 8F C0 2F
 BD 53 2D EB 96 7C AC 6C 7F 31 50 69 89 F7 BE 4A
 CC 99 96 5C 94 E2 69 5E ED DA 24 44 DC 77 B8 60
 2B 42 27 9A 4F 5E E7 54 6D 49 95 F5 C2 23 AB 68
 EA 81 EC EF B8 15 01 A2 1E 14 AD 20 DB 71 FC C7
 8B 84 FB AD B5 12 59 F4 34 B4 50 BC 82 D0 F6 02
 CC 25 9D 98 9B 20 1A 11 67 73 D6 0A DC 66 D5 27
 86 2B B7 4D C8 BA 95 B4 F5 45 08 E0 2C 18 05 09
 BA C7 DD 69 E4 1D F0 F3 40 23 0D BB 22 61 62 F7
 4E C8 8C 02 72 C8 0B 4B 5B 66 27 6D 15 98 AB DC
 C3 05 10 ED 9A 65 FC 13 68 F9 3C 53 D5 1F D4 DE
 C2 07 F2 FE DD 99 C3 65 79 6E AF 60 F7 FB 46 42
 43 1F 6C 21 37 CB 99 F1 B1 BC A7 FA 93 56 D2 55
 F2 DE 4E 90 F5 62 2C 32 52 77 6E 2B 07 F1 82 A9
 75 1C 9B 85 FF F8 77 F1 CF E7 23 C1 31 9B 43 0F
 82 2A 32 11 5C 5C 51 29 0A 70 43 10 49 A1 3D 3B
 BF 16 62 BD F4 CA A0 DA 46 E3 90 CE C6 0F 05 22
 58 78 D9 BC 2F 24 E0 ED EB CB F6 A8 01 65 A6 6E
 6C 6D E5 2F F6 D6 0F 6E 66 4C 02 7F AB B9 A8 B6
 33 E9 CD 07 2D 0B 72 03 28 E9 72 12 2E 22 CE 7C
 EA A8 1F 01 E3 D6 08 0C 5D 50 CE 76 21 8D 9E BA
 AC 2E 6F 80 33 7C 33 50 25 C5 04 AF C5 C5 EB 2A
 80 20 2C E9 80 2E AB 20 E3 26 72 CD 7F 81 F5 3B
 B6 95 7C FB 26 43 66 DD D2 0E 26 8D 33 2C 63 A7
 D1 AA 42 0C 37 F3 CC DD C1 84 89 59 FA 7C F2 D9
 61 04 A2 6A A5 07 3B 8A 39 14 F3 28 53 6B 1D 5E
 A7 1B 5F D0 45 03 50 7A 00 6F D2 E3 30 B6 0C 64
 EB B3 D4 DC C8 FA 05 93 55 59 FB F0 71 46 18 6C
 70 9C 58 C6 2C B4 6E 72 D5 82 45 71 E4 A1 62 F2
 10 24 B9 92 7A 46 33 9D 7F BA D0 24 B4 6D BB AF
 85 7F 62 CE 1D 20 E8 66 D2 38 3B 10 61 6C 26 C1
 50 39 D8 45 49 5A EC 39 67 A9 57 20 C1 DA B0 B9
 87 64 E8 FA B4 A2 84 E4 37 F1 6D 4A 13 7A F4 FD
 B1 8D 17 D4 0D 09 9A E4 0D 43 7A 2B 2A 4B 97 8B
 24 66 2F B1 AF 18 07 2D A4 98 3B 48 FA 85 2F 5C
 ED 14 D8 38 6B 58 02 8E 1E 51 B7 C6 4B 17 4C 0D
 EA 59 10 4B 10 AC 99 A1 5B 2D 7D 9D 7D 15 05 78
 72 3D F5 7D 4C 79 53 61 18 22 A9 25 C4 F6 D7 6A
 E0 11 EC B1 0F EB F6 37 8D 7F B2 91 D6 5A BD 64
 DE C9 07 50 13 5D 8A FF 00 57 2A 2D 39 64 37 F4
 43 65 D5 3A EB B5 39 A8 24 F9 FF D7 F1 C4 AF 7A
 80 1E 3B 15 87 96 BF 41 09 14 46 54 88 75 19 6C
 8E 4E EA 02 E0 71 B4 B6 21 84 CA EB 62 98 15 6C
 48 30 C5 6A 75 37 8C 66 30 15 51 9F C6 A3 B9 49
 0E DD 4B 72 B8 9A 5D 46 5A 57 40 13 07 93 1D 06
 3D F9 F2 72 D3 6D 9B F7 C0 07 C5 CF CD 74 5B 59
 C3 1D B1 CD 15 20 F7 6C AD 42 E2 D3 AE 9A F1 10
 41 3D 8C EA CA B9 08 93 89 74 7C F3 8C 72 8C DA
 23 04 6B 2C 0B 4E 61 C0 05 62 78 22 B2 A8 CA E1
 A7 87 82 52 CB F9 D0 49 86 D7 01 CE 6C 55 51 23
 78 83 24 54 14 53 58 F0 F8 81 98 C7 1F 39 EE 49
 22 E9 3B C3 04 1C 5F 38 FD BF 31 13 D9 0E 5D 9A
 46 F4 DE 3F FF 5D B7 68 FC AF C4 B4 F5 A3 4C B0
 B2 D6 6F 72 3F 04 0C E5 DF F2 16 F3 29 B8 DC 6C
 2E 85 31 43 78 62 07 DF 94 59 3B 23 AA 99 A5 8D
 12 65 F7 C8 0D 8B D9 23 CA B8 15 FD C7 9D F4 8B
 2F 84 30 0A B1 0C C4 BE 4C 6D EE A7 10 22 9C 3F
 CF 74 3D 71 57 07 63 0C 36 67 5D A0 2D E8 F0 00
 1D F2 38 F0 54 CE 0B AC 76 9C 30 CB AF 03 44 B0
 30 03 1E D5 27 BC 36 98 C4 C7 A9 E6 2D AF C0 21
 9C 4D 6E 3B B9 E2 6F 51 9C 58 1F E3 39 1D FD 5F
 28 C7 79 79 FF 48 DB BF D2 D8 BE 4D B2 E3 D4 31
 2D F6 2D 20 06 19 8A 47 9D 06 01 CB 49 0C CB 9D
 65 21 62 5F 4D 28 88 B3 07 73 62 86 44 FC 74 9A
 60 F1 9F 3A B9 19 1D E4 67 3C 77 D2 34 65 FF 6A
 BE 7C AA CB 46 2E E3 29 E1 9F 1A 71 B2 19 4F 2B
 6C A9 2F DD 58 8B 2B 87 44 C2 2A F5 B0 7E 86 22
 82 67 0C F1 30 43 CF E9 CA B0 27 B0 38 4F 32 64
 BA 64 0A CB 9A 90 91 E7 35 C4 00 AE EB 4F 22 31
 BD D1 99 F6 84 6D 14 A0 63 A7 05 C6 EB 3B CB 43
 81 1B 18 51 70 91 6B 3D 24 29 FE C1 C0 B9 5B D7
 83 F3 73 46 C1 8D 99 02 3E D6 6E A1 70 32 D5 94
 58 1C 89 E5 21 8E 46 03 8E EA 90 18 A8 1F 31 62
 D9 20 39 60 0D 5A 6C 48 C8 DD 35 BA DE 75 90 29
 6E F1 3A B2 FB 2B 96 35 38 79 13 46 C9 8D 14 AC
 CC 4D A7 19 C1 14 E3 F6 88 9A 81 58 10 66 AF ED
 A7 91 FB 41 7B 2B 0B 3F F2 80 93 52 5A 85 B5 D9
 FA B1 C8 DF 28 2D 93 84 79 72 73 EC 42 D6 5E B3
 DD 9A 49 84 72 C3 07 11 C9 B8 6F 15 BF 5E 62 DA
 26 15 B1 1A AE 8C 45 D4 D6 64 E6 0F 29 56 55 AF
 29 14 B0 45 74 E6 F5 82 6B 5C 1A 5E A9 59 4A 97
 2B DB 6F A6 8D E1 A4 65 AB EC 1E C9 2A 81 BF 9F
 96 3E 17 82 7A 18 66 E9 E1 95 1D FC 38 CD 8F 43
 BC 28 16 88 62 F0 12 6A 8D 20 23 25 C6 14 EE 84
 EF 34 EC 76 BD CD 70 EB 90 B6 D9 96 3A 62 C2 05
 E3 CA B1 7C 0C 3C 0E 74 3D 01 BA 47 69 BB 0B D9
 C5 32 B7 04 01 8C 16 E1 3A B0 22 64 55 5E 13 5A
 A1 AC B2 13 F4 A4 FD 14 59 63 01 1F 3F EF 6E 91
 77 2B 48 42 17 5D 46 7B C3 56 A6 02 7A D8 D5 8F
 B1 51 BC 8C 15 A8 D8 CB 3E AC 07 4C 2B B2 37 BA
 8C 60 25 38 9F 36 93 AD AC 41 48 E8 31 E9 00 7A
 C9 BA EC 59 C8 94 D2 8D FC 96 4D 4C B9 34 B1 3D
 4A BB EE B4 64 07 B7 C5 7D BC 9A 46 1C D0 27 E2
 75 81 27 4B 0E C0 CC A7 BC 4E 39 6B 0F 45 73 97
 99 0F 5E 63 EB FA 6D 45 40 02 75 2E 2B C2 BF F1
 29 F4 B9 13 B0 92 C2 E3 DC CB 5C 18 88 E1 5D FE
 50 09 43 2B E4 80 DC D5 2E A5 ED CE E6 BF F8 94
 BB 3B 51 08 27 4C C8 CE 7F 74 99 94 78 02 E1 24
 94 18 C4 BD 48 D9 5A 56 F1 BE 03 3F 1C E4 2A 4A
 55 4D B3 1D 50 74 B7 3E 19 C2 B3 40 42 0A C4 0D
 A1 87 2C CD 2E A9 0B 11 26 E5 34 45 E7 11 96 AA
 82 7D 8F 94 17 2A ED A8 B7 02 32 57 43 EC 1C B2
 5D 92 9B 80 31 F1 C1 BF 6A CB 07 89 5C DC 6B FA
 DE 87 90 F8 BC 76 80 8B 04 4D 11 4A 8A F1 44 8D
 32 CF D4 DC 6E 23 19 38 67 FA 9B 00 2F F0 F5 EB
 FD 0F AA 9A 38 AC C0 31 8E 2E 72 DB F7 3B 0B 57
 91 5A C2 83 30 AE 77 E4 6D BA 22 89 55 9D 37 2F
 8C 1F A2 C9 67 60 59 1A BD 60 ED 3E CB 3C 5D B2
 53 4D 42 B9 95 F5 42 28 DF 5B 73 60 F7 92 6C 98
 02 D2 B4 7B BF CA A6 0A 33 45 CB 09 25 A9 C7 A5
 5B 7A 64 14 A9 16 1D 30 82 F5 CD 19 E0 9F 5F 45
 F7 A1 12 1A 2F 08 6B C6 F9 C6 84 DF D0 F6 A9 F7
 3D DD 0D F0 7C 57 3E BF 53 22 54 06 7C D1 C8 54
 07 80 90 3B 93 B8 57 4F 6B 96 98 1C 23 A0 74 03
 98 D7 5E 92 7F 40 17 94 A3 9A B0 E4 79 12 75 9E
 2D DE 46 9A 5B B1 52 8D 89 38 4A 6B 3F 53 0C F2
 AE 4A 1C 17 7A AA 59 F2 A0 68 FD B0 CE 92 5A AA
 B1 D3 06 59 38 F1 12 8F 64 90 4C 10 06 FE 9A DE
 EE 31 04 3A 47 94 02 12 CC ED DE B6 F7 5B 58 21
 02 F1 3B 4C 59 F1 18 3A 5C E9 87 67 E7 3D 90 66
 2F 8A D1 00 76 A1 E5 1B F3 8C B1 18 D6 FA 1B BD
 F6 AA 66 E2 F8 61 29 5C 21 94 96 65 D5 19 24 1F
 15 B8 3A F3 4A E6 B6 6C 91 BE C4 19 F9 EB CB 13
 CF 39 91 46 88 49 48 9B 89 0C C3 FF EA A7 52 18
 A0 13 68 C5 73 72 49 56 B7 22 43 9A 3E 91 90 15
 C3 16 10 B3 39 FC 90 C7 DC DB C0 AD 05 A3 F7 71
 0E 2A 52 8B AD 6A 67 14 E8 C7 B8 60 FB 59 6C 34
 C5 B8 2A F3 AD E7 12 E6 6A D1 9D 95 5B A2 2B 35
 E7 FE A6 3A 1B 43 DA 27 26 30 95 A1 12 8C 45 6D
 E9 6F AF 0F 31 11 43 33 7B 64 81 0F F2 3F E1 6D
 BB 9B 1B 59 DD BB 24 D1 E1 70 A2 5C B3 92 38 EB
 F6 11 64 3E 3D 0A 03 D2 E2 1B BC 9E D5 AB F9 EA
 8C 3A 4C 51 28 1E 3D 78 C9 B1 8E EB 2F 20 98 C6
 09 DF 60 F6 AB 33 63 32 28 07 8F 01 BA AA B7 66
 C3 BB E7 75 CD E6 40 A6 F0 9E F3 2A F7 F2 D2 94
 CD D1 C9 D3 E4 E9 D7 95 CA A3 BB BC 7A DF D5 D0
 3E 8D FC 5B 86 B7 C7 49 10 E1 DF E5 DF 8E 7C 5F
 71 4D 23 5F FA 03 50 E9 8C 62 D3 81 34 E4 04 23
 F8 B5 E7 C5 93 38 08 AF FD 81 5C 2A B0 8A 4B D8
 7D 2C 04 C9 FB 54 4A 62 A7 9D F6 BC C7 8A 00 50
 FF BD D2 C8 A8 48 C6 05 33 FA EB 9B 8D 4A CE 22
 EC 72 7B E0 E0 47 BC A5 18 61 8A E6 5A 2B 02 36
 56 E9 13 47 6F EB 18 51 A5 E5 7D E5 47 6D E5 F5
 A7 EE D7 8F 24 0E CC 8E BB 06 C3 0D 13 CC 08 CF
 21 34 7F 8B 57 2B 75 01 F6 A5 D5 5C D3 8A CB DE
 7D 9D FD 39 4E E6 77 73 BB AC A1 E1 6A 50 DA 36
 BD 43 1E AC 01 62 72 53 CD 9A 3A D7 71 47 09 B4
 24 EA 09 38 AE C4 B7 0F C4 82 23 3D 7C 82 80 7A
 0E 13 E2 63 D1 E9 5F A5 3F 32 42 5A 49 98 12 0A
 79 08 60 CD AB 13 D6 D8 5C D5 D4 51 04 94 0F B5
 57 23 DD 3B 2D 55 A2 AC 87 5F 69 28 BA 7E D3 89
 9A FE 1F F5 62 69 EE D4 5D CF ED 31 FF 5B 37 05
 A8 E0 29 69 A0 47 28 ED E2 A8 F1 2B 74 AA 43 E1
 94 29 74 01 B2 3D DE 09 0E B7 F1 8C 30 65 A8 14
 FE 18 1F 13 5F 10 75 80 30 31 B2 20 18 19 A7 C0
 AF 7D F7 2B EB 2D 53 42 08 14 A4 34 44 7B 94 B1
 DF 5E D8 D5 27 BD 18 BE 51 D8 F4 FC 2C B3 54 C1
 D5 48 F7 BD 63 AD 17 DB 1D 74 DF C7 CA A6 BA 99
 9E F7 C6 3C 7A DF 95 EF 81 52 CF 38 86 45 30 13
 B3 C0 29 0B 44 5A 4D 61 BA BA 32 DA BC 44 EF 4C
 18 81 A6 1B 05 B8 C4 B8 51 41 44 E5 3C 31 78 5C
 EC B3 4D 05 16 C6 94 67 62 F8 BE E9 43 48 00 2A
 CD 20 30 B2 55 A5 1D 2C 93 61 C6 6C 48 93 25 A2
 67 70 AB 9B E1 34 7D 65 E1 6E 34 68 99 85 96 F0
 86 0A E6 B6 0D 79 D7 5F 34 02 0A 0A 53 13 9F 88
 36 A9 53 7C C1 BB 6A CD BC 2D 7D 73 00 C5 CC FE
 D3 F4 90 E1 DF F9 7D B2 CF 2D 1E AB DC F4 42 85
 9A 54 A3 67 A3 09 78 4B C3 08 95 AE A5 EA 25 E5
 27 82 FD AE 94 C2 94 65 AA 0D F8 CA 2C BC 44 3F
 03 82 A8 B1 FD D7 B4 34 96 0C 87 71 A4 E1 27 8A
 64 D3 DE DB 3D EB 47 EE 02 BB 69 BC 50 AE D5 73
 4E 70 40 9C 8E 83 36 E2 83 44 80 A4 2B 03 35 C9
 47 C4 CB 1A 11 82 DD 23 9D CF DC 85 0B BA 7E C5
 A4 F0 3A D2 2E 00 F3 58 12 19 FD A6 E0 A5 ED 65
 C6 D4 82 BD CC FA 3F 58 0F 41 C8 E4 B6 46 B0 A3
 F1 48 1B 6D 37 E9 ED 64 5E 20 1B 1D 94 9F C5 D8
 7A 11 30 50 54 CD 01 0A 9D A7 88 5D 1D D2 78 31
 8A 33 1C E6 66 F7 4E 02 C0 76 13 F6 0B 7A BC 76
 E3 1C E7 C9 D6 0A 96 21 35 DB DE 70 76 93 40 12
 80 BB E7 A7 24 B8 9B 08 31 BA 94 66 A2 EF 12 34
 E6 53 3C EB 3F 4D 81 A6 E0 11 CC DA 78 0B 35 77
 D0 90 A7 47 6F E6 B1 1B 56 0C 19 C4 E6 43 65 F6
 B7 FE 4F 3B BF 5C DF 05 3F 51 C4 E6 F0 DA BE EE
 F6 D0 FC 66 F3 EE 16 E3 5A 22 AD 9F FD 68 DB 3D
 FB B4 C5 81 FE 26 6A 6E 07 1F 1E 82 1A 21 8E 79
 E0 78 87 F0 95 E3 CB AB 4F 6F F0 6A F5 BD EC 41
 BD C7 6C 68 B6 2D A3 90 1D 9D 2A 21 02 6A 1C C9
 79 79 2D 64 E2 09 1B 39 43 BD DE A2 41 7C 8C 27
 C0 F4 FF 1E 92 28 F3 BC 3D 41 E0 7C 88 38 A2 BD
 39 AC 24 F0 BD 3D 9F 89 8E 3C 26 4A AE 77 1E EC
 A4 A6 13 70 31 4F 6F 0B 20 FA C1 7D 9E 63 AD C0
 2D 31 9B 66 FE 1F 04 21 94 27 2A FF 19 D4 8C 02
 6F BB 77 B0 40 3D 59 AC 45 66 20 1F 41 DB 6B F9
 E3 6D 64 08 F6 66 D2 26 D9 C0 62 54 F5 71 D4 9E
 F8 6C 01 DF 12 90 C4 EA 7C 2C 61 51 9D F0 C7 EE
 BF B9 DE A7 F0 C4 39 4E 77 9F 84 A6 66 C0 B7 CF
 85 AB 6F DD F9 04 0D 73 6A 91 63 AC 5B 2C 6B C9
 F4 0A 8D 81 1B 0A 9C CC D3 18 4E 98 C2 11 1D B6
 57 63 86 5E C7 99 68 14 61 EA 29 9A 63 39 BD AC
 26 73 C2 2A 0A 6A 36 30 DE A0 BD 73 A9 5D 5E DF
 4F A8 8B EF D5 87 11 A8 F2 D7 80 D3 88 E1 A5 23
 E2 CE 7F 2E A1 FE 91 B9 92 60 55 00 90 B3 B8 7D
 D8 D5 8F 05 86 6E C6 53 1E 49 A5 10 D1 5C FF 2A
 58 CA 4F EA EB CD 1A 11 35 22 A8 7A 92 02 89 92
 F7 76 84 68 DA E3 C6 7B 50 C0 61 C7 B6 4C 81 AF
 D9 FD 2B 41 9C 30 F2 03 0E 28 18 E6 CE C1 74 0B
 18 E9 1D 57 A2 3A 65 13 4A 55 A2 5B 7D 76 AD E9
 DA 7D 1B 00 C4 61 AA A7 B4 2E 4F D2 58 6F A9 DF
 F1 EE 3A 97 2E 32 87 82 58 6C 18 10 80 D7 1D 06
 B9 C4 28 D3 70 E5 09 5E 8C D9 E6 BB A4 B7 57 D9
 BA C4 C7 18 40 9B 19 FF 9B 83 2A 29 B3 EA BF 54
 FB AD 20 EC 96 03 30 15 91 0D 53 6B 68 D7 A2 13
 54 44 91 B5 E7 E2 B9 D5 7B FD DE 34 08 CE 7C BF
 70 71 3B 0A 89 15 35 BE 39 8B 26 E7 F0 E7 86 13
 9D F5 7B 6F 77 B7 E9 FE D3 08 B4 9F C6 3A 97 10
 DB 8E 74 5E CF 8F 4E 73 A9 C4 60 55 B3 00 A8 99
 8D 00 89 81 AE 6D 6B 1B 6A 73 76 EA 3E 69 8B B6
 93 23 59 A1 6E 2B EE D3 27 08 9D 9A CA 52 85 FD
 97 B6 13 9A C2 E2 94 D6 1F BE CE 11 52 E2 7B 53
 CE 55 BE 73 B0 EE 15 DA 74 4E CF FB 4F 43 63 4D
 FC 51 BB EA EC 1F 39 78 93 1D 2C 2A EF F8 38 67
 F9 00 2D 12 39 0D 06 01 DB CA 5E BE 7C 73 80 7F
 FC E7 E1 83 54 5C 18 C3 AF D0 20 25 C1 B4 4A 89
 6A 4E AE 85 DB 4B 62 2F CF 82 A7 96 9F 19 AB E5
 B4 9B BA 99 6F 7E DA 3F 88 A3 B4 E4 AD B0 73 2F
 5B 3F E3 E7 8C B0 50 63 D2 53 C5 C5 13 81 D6 38
 BC 31 35 1A 5B 24 B7 84 73 32 3F 93 6B AD 50 28
 12 80 7A C4 8B F7 2D D6 74 0E 3F 12 23 05 06 09
 C0 AB 08 96 09 6A 29 91 37 A9 36 92 04 87 0C 1F
 11 A5 D6 C9 CE 40 62 51 1F DF 47 4D 82 89 53 8E
 BB BB CF 77 A8 44 47 63 9A 9A EA 72 B4 B7 11 43
 86 33 3F 29 66 94 09 AE 5A F2 B3 2C 85 5D 4C 63
 B5 D4 AC 7B C7 AE 64 C4 EB FB 8B BA 55 6A 24 0B
 6C 23 14 E9 56 32 4A 38 F1 04 D1 24 78 D1 89 61
 A7 A2 CB C1 B5 23 EB 71 F6 05 40 70 29 31 4C 9F
 C6 2B 7F C3 0F 67 BF B0 11 EB B8 66 8F DF A7 AC
 87 38 BC 5B 34 74 A4 A2 0E 69 5E 3E B0 15 C2 0C
 70 D7 C0 92 D5 1A CD 20 5E D2 9F 6E 7E BF BA 73
 EB A6 7B 6C 2C 6B 3F 13 E1 6B 1A 00 B5 87 E5 D3
 2B FB 85 8E 00 FB 6F 83 F4 5D 9B F6 10 77 17 31
 2D 23 A0 1D D5 10 4D 81 E9 7D 0D B8 B1 FA BE B1
 58 C4 20 0D CD 4F 3A 99 41 98 10 EA C9 A6 6A E8
 83 EF 1F 65 6D 29 00 C6 B1 18 99 12 2E 1F 4A 23
 BB 15 B7 4C 5C 99 62 FF C3 EE 44 B3 51 2B B0 9F
 D7 A8 C1 D2 39 39 4C 8A 04 70 2E 7F E7 83 75 72
 1C 95 48 29 35 2D 0D 4E D8 23 09 69 97 D8 1B FB
 9F 9A CF 9F CD F0 2F 98 39 32 97 30 04 34 6E EC
 1E F6 E0 7D A6 09 74 02 CB 65 E0 D8 A6 0F 30 D0
 02 6C 8E 16 6F C0 B7 8E 5C E9 99 3A 18 58 D7 2D
 CB 87 5A 92 3B 0E C8 FC 53 F4 F8 2C 27 D0 5A 4A
 8A FE F1 D1 4F 74 F1 D8 33 C5 7D AD FB 31 32 32
 8C 12 4D 9A DE 76 62 61 12 21 65 30 CC E6 97 52
 76 7E 55 39 57 2E 9F DA B8 27 AF EF 29 DE 74 A8
 30 E9 01 1B 2D 2F 71 C7 48 99 40 45 56 50 5E F5
 2F D3 76 4D 42 80 72 EC 46 C2 C0 E0 CD 76 34 A9
 B2 43 E3 E9 2D 70 ED 5A 88 E2 B3 D9 58 1C 21 2F
 75 DC 7B 94 A1 1C B9 E3 E3 E7 8A 2E C8 80 33 3E
 86 F4 6D CD BD 0B C4 2A 2F 7A 6B 5B EB CB E8 3C
 28 50 D0 0E 40 0D 7E 7A 2D 31 C0 59 8F 49 F2 61
 5B 85 B7 30 C8 0E 0B A3 60 F7 04 C8 6D 18 96 89
 EC 09 0B EF CC 8E 7B E0 A9 9D FA AA 79 93 2F BA
 5A 24 81 56 E3 9D EB DB 90 0F 1D E0 50 01 AC F7
 18 9E 0B F9 11 5D E8 DF F2 1B 31 E8 00 B9 B9 74
 21 42 21 73 40 A8 E4 FB A1 EA F8 B6 75 8C E6 BD
 5E 91 CF 70 C2 F4 F8 C2 F3 10 B6 A3 8B A9 0F 88
 F0 F8 5A 4C 6B 64 28 8A 11 18 75 60 CB 54 D5 FD
 3F 55 4D F9 22 D8 DF 51 E0 1D D6 7F 82 E8 BD 24
 BF E2 70 EF 14 94 D5 A8 11 00 29 88 B0 2B C8 99
 86 60 33 90 9A 86 AF C6 47 7F B4 28 F1 8C B5 12
 5E 8D 21 BF 50 9C CC CF 39 9D B3 BC A7 C6 86 FE
 17 6E 60 D1 C1 D5 BB A1 EA 30 44 24 B0 81 AB C6
 AE 68 2F DD 2A 28 3B 9F C2 21 6D 5B BD 28 84 85
 38 CC 2F BF A7 20 CE A2 30 2C 8C 1C 33 57 B1 08
 65 AC BF 6C 55 7C 5F 36 A9 97 93 22 31 1F 04 FB
 00 83 2F B9 5B F8 4F 91 CE 3E B1 B8 0A B0 D5 52
 61 BE A2 58 F6 50 34 32 90 E5 91 26 F4 7B 92 EB
 A9 D2 83 C4 13 AF 09 15 B1 E0 B3 8C AB DC 3F DE
 AE A6 2E DD 7D 32 38 AC BB 57 26 38 EE 8A 60 03
 B1 30 4C A5 74 C6 CC 22 73 C4 0A E7 9D 27 54 D1
 2B D9 E9 B8 62 66 D8 DF 25 00 D7 DD 53 61 EE 0C
 2B 57 26 71 97 18 43 C0 90 93 E5 77 02 A8 13 88
 9C AA 27 94 6C EE AF 67 F7 7B 57 1B 98 EE 69 C7
 34 0A 1D F6 3F 1B 3F 51 B9 8B 50 13 6B C0 E4 6B
 60 B7 FA F0 37 27 DE CB 0E 8D 45 C2 81 E7 DD F9
 EE 03 F3 67 C9 61 2E C9 E7 BD 1E 2E 24 69 C4 05
 51 1D 13 9C 01 6A C1 57 68 C8 DB 62 11 DA 52 C4
 84 99 51 0C 47 12 74 79 44 9F 40 09 96 3D E9 1D
 E2 F8 34 04 08 3A 02 ED E5 37 F6 64 80 CB 04 99
 0D 7D 18 BC 58 44 78 7A 3D 96 E5 4A 97 8E E4 2F
 48 F5 49 26 2E E8 F3 29 A6 F0 16 FE A0 6F B7 11
 BC 87 5D 86 C6 65 3A 74 48 E7 40 F0 45 2D 6A 17
 5F CB 77 CF 48 AF CF F8 16 01 23 2C 04 53 DA CA
 2E 9D 13 DE 1A D6 43 81 3D 71 45 AE 49 74 B9 AB
 60 5C 30 9F 21 22 A9 3F 61 76 BA 6A B2 DB B5 E0
 14 98 2A 64 EC 6D FA 33 57 D9 F7 2E 5E 9D EF 9D
 33 E0 4A 11 C5 26 49 AF C0 E1 4C 65 E9 63 79 E9
 8D CC 40 F4 81 F7 04 7B E0 07 51 1D 38 92 E4 33
 36 66 CF D2 8D DB C4 6C 16 9E 72 2C 87 6C 3C 00
 09 E1 CA 5A 95 81 12 35 40 D7 FC DC F4 19 CC 4E
 D1 F5 54 A7 D5 64 20 DA 9D 50 96 AE A6 C7 DC D0
 50 80 4A 45 34 43 B8 6D 91 4C 0F 95 31 C1 D2 16
 03 0C A6 70 3D 23 10 02 E2 D1 26 CE 40 49 7A 23
 10 05 0E 72 56 D7 88 BC 1A 3E 58 56 FB 0E 7F A3
 B5 FB 37 DB 92 E3 78 69 C0 88 7A B7 E0 72 92 46
 FE 5C 36 03 7D 70 BE 30 0D 76 BE 15 B8 05 1C 5E
 B1 8D 32 DC 35 56 D5 B1 1C F2 36 F2 3B 4E FF F4
 F9 6C EE 6E AA 63 8D BF B0 89 BA 88 E7 9D A2 19
 3A 62 27 B2 F3 85 D2 3E 96 CC 1F 97 8D 36 E6 5C
 77 64 DE E3 0A C8 99 0D 8D F4 5F 47 99 8B 76 7D
 7D E2 CF F5 DF 0D 7D E2 35 BD 73 1B 82 AF 72 9C
 0F E3 31 45 FA 22 09 4D 3A 7B 0A D6 54 5E 16 77
 30 2C 12 62 6D C6 F6 E5 F5 33 F9 21 56 79 CC 66
 DB 21 02 44 A8 F3 85 27 23 25 FE 55 D4 CE 18 9E
 DD 34 8B AF F2 D7 1F 3E CD 57 35 AA 16 C8 EC 83
 9C 05 72 81 44 6B F5 B5 3F 2C E6 19 5F CB 08 10
 46 DD FC EA EA CB A8 6F 3F 47 C8 52 5F 58 BB 40
 5E 21 07 4F 49 28 EB 64 E4 1E E1 35 03 F4 37 15
 87 B9 83 EC 42 99 7A 09 99 27 1F 2E 0B F7 E0 99
 62 15 22 3A 5C A2 10 EB C0 1C 32 C1 5A 8D F2 75
 C3 4B BE C2 19 6C 1F 7E 61 EA 1E 6B EB 39 82 58
 42 44 21 A4 E3 14 40 48 B2 53 FE 8E 8F 59 71 C4
 4D 3F 6E 40 2A 64 DB C0 A1 5F 6C F5 0B 19 FA CE
 E0 C9 9C E1 4C 61 13 37 E4 3B D5 C3 6D 79 AD FC
 9C 67 C4 FE 14 CC AA 90 E8 0E 66 29 D1 72 A5 7B
 D4 EC 17 AF 61 A2 84 E2 AF 1D 58 CC B9 31 E3 5B
 1E EF 27 9F 92 45 91 47 C0 D1 49 DD CB 0A 43 A8
 4D 22 77 65 82 CE 82 DE E9 6B B6 3C 89 5A BE BB
 79 05 E6 35 FB 06 98 AE 29 CD 79 20 2B DE 23 0A
 8B 40 C2 97 8B 31 FD 25 6D 35 E8 73 FE D3 52 7E
 6E B4 81 07 ED 9E 24 F2 E8 13 6D 36 D7 20 E7 AC
 2E 8A 86 8D 07 50 37 04 4D 62 28 DD 2E 79 EE 22
 32 65 95 C5 D0 BF B1 E4 8B FC 44 81 51 46 EC 69
 4D 7F 56 1A 74 E3 08 9F E7 45 22 40 7D B2 0A 23
 23 31 34 33 7F 8B CE 6B A7 F4 7D 18 89 1C 61 D4
 86 2A C1 45 32 4B 5C 89 91 21 47 30 CC 85 C5 7C
 60 71 1D 99 75 05 F5 C2 5A 76 D9 17 30 C8 C0 E0
 C8 65 BC 8B 92 11 31 AF F1 A2 2C FA EC 9E 1F 64
 19 95 36 47 49 05 54 84 92 26 37 A4 50 69 E7 6D
 7A 22 AB 15 13 58 A9 7C 92 70 29 F8 DB B3 F2 78
 B9 EE 43 1C 61 3A AB F3 58 4A D3 56 73 95 BA 60
 0A 06 44 8B 25 A6 DB 1E 84 56 EA 45 8F 7C DF 0C
 22 2D 03 ED 87 A2 CB BB 62 27 01 D6 0B 8F 4F 17
 9C 29 D6 0B E1 71 34 FC D7 D1 85 7C 3C DA 0B 43
 C8 F8 CA 7F E9 91 24 4A D5 29 CB 5E 05 F6 1C B0
 2D D4 84 1D 60 40 BE 0B 40 09 5C B6 74 1A AD 44
 2A 2F CF A4 EE 99 77 33 37 89 F5 9A A1 AE 32 79
 38 E6 48 78 18 52 82 31 78 9B 36 4F A9 C8 5E B0
 B2 54 C7 53 70 D6 31 8E FE D0 AD 1A C0 98 D2 31
 D9 FE 75 64 B5 2B 23 A6 06 9A 63 BE 35 4E A8 4D
 7B 3A 96 FE F7 AE 66 54 5F DB 8C 6C DE CB F8 B6
 E6 B0 CA 4F E5 77 F9 A9 9B 74 1D 24 99 17 63 F2
 FB 4A 74 9B 19 A4 27 3F 8A CB 7B 48 D5 63 82 85
 A7 D6 F8 28 D0 2B 9E 71 B0 2E 16 A3 B3 45 08 E8
 94 57 2D 08 38 60 16 C4 A2 09 7E 0B 2C C7 06 DF
 73 B8 D4 17 87 94 CA EF 00 5F 24 FB 69 E7 E4 B7
 68 C1 50 7A 55 11 6E F1 38 08 66 37 4D 0E AF BA
* End 846276514 4142822811