* LTspice Encrypted File
* 
* This encrypted file has been supplied by a 3rd
* party vendor that does not wish to publicize
* the technology used to implement this library.
* 
* Permission is granted to use this file for
* simulations but not to reverse engineer its
* contents.
* 
* Begin:
 23 CB F3 34 F4 47 DF 69 DE 96 C7 CC 86 70 EF F1
 E8 D0 DA 6C 59 EA 3D 63 47 41 BB 87 07 44 84 30
 55 3A A2 6F C5 B4 C4 3B A9 9A FF B1 21 3E AF 07
 A1 ED A8 31 D4 F4 7B 3A 16 64 50 E1 4D E7 1A 52
 40 3E EC 31 06 5F 7D 22 09 FF 45 A5 CD 21 B0 24
 71 65 37 F5 04 55 36 04 F4 BC A2 8B BA E4 41 7A
 3B 9C 9A 24 61 9B 2A 98 31 1E 62 98 BB 92 EC 08
 D4 C2 19 E4 1E 64 BD 94 E9 6A 92 1E 39 13 FE 65
 4F 7B A2 1C 9D 8F 79 97 A6 2A BF CA 3A EB C7 CB
 EC CE 77 53 80 26 17 76 EE C6 4C 50 EE F7 DF 36
 00 8D B1 6A EE 4B B1 09 30 D5 D2 A9 C1 FF C7 D5
 7E 06 2C 9B 28 95 36 62 B7 42 E9 C8 14 47 1D D1
 2F AB F8 81 E7 4B 8A BF 58 B6 3A 97 DB 1A 7D 79
 1C 40 33 EB 94 A6 8F 79 47 4A 06 54 74 14 94 B4
 20 02 9E 0D 58 6A 3C 89 23 A7 9A 68 9C 3A 3D 14
 42 AC D9 CD 2E 54 85 A7 6E B2 B2 4B 86 D9 49 58
 CC BA 53 7A 15 0A 76 0B 8D 1C D1 1E D8 7B CD 6E
 9C EA 2D 5B D3 01 10 0C 50 F0 D5 5A 1A D3 82 03
 7C AF 86 F5 4D F0 E3 86 33 3E D9 79 B3 14 A8 4D
 74 9F E4 9B 1C B5 B2 6E F8 51 C9 18 17 CE 63 18
 31 9D D0 F7 ED 54 77 AE 9D 11 F5 C3 F9 1B 88 A6
 53 88 98 47 D9 11 FE 86 47 2F 09 F8 EE 57 32 9F
 41 13 DB D9 26 95 61 80 A7 70 47 29 64 EF 28 14
 82 EA 4A 3E 6B 28 6C 88 73 02 53 03 7B D0 6C 94
 C9 97 A3 A0 BF CC 99 BF 2D BD E6 E1 68 16 B9 C6
 3D E8 5A B3 11 91 A9 7C 96 85 25 69 40 04 04 46
 86 29 5A 98 ED A8 7C BE 3A D1 0D D0 A4 11 6A 6C
 DF 03 24 BB 24 A3 1F D0 E4 F4 CD FE 79 B1 05 1A
 9A D2 3B 00 69 F6 BF 27 82 DF 8C 85 58 1D 10 78
 D0 BA 0F 74 ED 74 7F 65 02 07 93 47 14 1C 36 85
 24 FA 71 C3 74 60 DF D6 1D DB FC 8C 1A 46 3F 55
 3A 8B 33 43 49 3E 9E 26 32 E6 6D E2 05 EF 22 DC
 0C BE 66 01 88 14 58 AD 58 1F A9 27 F1 0C C7 D7
 5B B1 F3 06 F5 AD 69 91 A0 FA 17 C1 E0 72 EC 0B
 41 D6 6A 9D 40 FC 30 0A E5 F0 68 DE 07 78 31 5F
 C6 DF A8 2E 1F 40 BC 36 27 99 12 6C 9A AD 0D 13
 EA AF 05 37 F4 FE F2 A1 C0 84 EE 16 83 29 94 20
 A5 57 D8 04 00 C2 3B 9A B4 88 8C F4 73 B9 3B 18
 43 17 49 98 43 79 E8 D5 51 9B 25 A5 61 1C 32 E5
 97 0F B2 BA 2D 49 91 A8 D2 C9 7E A2 4E 08 6B 34
 7C C0 2C F9 94 DC C9 98 F8 F7 86 1B 9A 7A 36 D7
 66 25 05 E9 32 F3 F0 6C 49 72 AC DA E0 54 C2 51
 92 CC BD 6F 8A 55 2E 5E 56 42 79 1E D9 F5 46 B4
 32 F6 FA D9 BF DC 6B E2 1D 51 F9 40 36 F5 7D 0B
 5B 6D F1 52 D1 93 C7 7D 54 E1 35 4C BB A4 27 47
 45 18 26 BC 30 B6 7B 13 C5 A5 13 56 FD BF 3C 31
 B7 B7 83 31 41 BF B1 A2 4D CB 82 33 91 20 6C 6B
 A4 9E 20 7B 38 DE 78 56 91 C3 95 C0 9A A4 BE B4
 72 48 C3 22 45 39 A5 8E DE 8A A4 BB B3 06 50 12
 A9 89 D4 C3 5D 7C CF 7F 59 99 CB F4 7C E8 DD 58
 18 94 68 D3 B1 AC 04 87 4B B1 6D 9A C4 48 99 AD
 7F E2 57 3C D6 EE C8 98 7D F5 7B 29 78 FB AD 2B
 8E 64 FB 97 F9 05 93 5E 0B EB DC 52 6E 4B 86 4F
 96 90 10 10 1F FA 07 B2 65 6F B5 41 96 66 9D C4
 06 7D BC F3 EE 5A AF 85 72 BB AE 55 D3 43 ED F7
 1F D9 C3 30 C3 0D BA 11 AE 7E 0F F4 0A 68 4D 6A
 80 7C 08 D8 C0 C8 42 82 0B 73 CD FE 91 51 83 12
 FE 6A D3 FE 6F 11 79 38 E9 BE E2 61 C2 52 53 DB
 66 8F 5A 5B 33 E5 79 6F 36 73 38 D1 22 D6 04 73
 04 83 07 85 10 99 DC CA 5E 37 6D DA 92 19 1B CB
 80 7B 56 F7 E8 10 4A A0 0C 48 BF CE B6 BE 05 A9
 1A B2 3D 80 7C 25 64 C6 41 ED C3 2E AF 1F AE 4E
 44 CD ED FC 2C 45 17 9A BD 55 74 15 3B B6 60 99
 21 2B 25 1A 6A 2C 32 92 1A 70 F6 9B 37 15 B7 C6
 50 70 07 76 CB 75 79 47 99 F3 17 BA D0 3B 50 29
 0C 1D 60 16 16 68 99 BA 1D 79 EE 84 2F A0 FE 96
 FB 74 A3 49 52 A7 3F C6 6F 34 54 F9 82 72 25 C9
 5A 7D 2F 2C 64 42 F8 9D F8 79 4A 36 F4 C2 39 21
 ED 8B 53 64 87 06 64 C8 5D 23 4A 01 B5 51 93 9D
 BB A2 89 DF CD BB 58 6B 6A 05 D6 A6 6D 3E 7B 48
 6C FC F1 7D 28 F8 F6 D8 77 10 71 DD 99 15 DA 1E
 90 17 59 A3 39 10 E9 5D 49 AE FC 00 ED 6F 26 54
 AC 7F 47 13 58 C5 8A A7 C3 3A 00 71 B5 3D 3D 7D
 70 18 63 B0 B6 46 1E 79 3D 29 09 F5 35 95 5F FA
 F7 B4 7C 84 4D 23 9A 12 7C AF 0B 39 AC 65 66 1B
 E3 D7 15 5C 5A 05 45 DB DB AD 36 6C 1D 0E AD C5
 D5 DB 1B 86 7C 4E 8B 26 F2 CD EA D6 FD 6E 42 7F
 7C 88 34 5E F2 30 DB 34 44 89 C5 62 EB 5E D4 1A
 3E 30 F7 74 BE 1F 31 50 76 83 28 FD 5E 17 1F 60
 6C DB E5 50 CF B5 B0 CF 59 26 76 7F F6 A0 54 85
 84 C1 4E 98 6B 23 19 9B A7 A2 5C 9C 4E 18 A9 17
 0A FD 7C BA F0 1B DC E1 BA B7 CE BF D9 45 93 D2
 2A E7 5A CD D7 02 DB E4 91 E8 FD AC 98 F2 E5 35
 70 2E F7 9F B9 34 64 50 07 1A 9E A4 7B FC BF 26
 44 A3 33 F6 F5 FD F1 90 9F F5 AF 84 7A B0 C8 C1
 54 09 E9 01 C2 5A BD 9E 64 C4 94 31 81 4F 4C 58
 6C 82 6E 78 64 46 F6 C8 2E E9 E8 88 D5 D5 3E 83
 4F 09 62 B8 E1 8F 20 DF 6F 39 61 48 34 98 E1 42
 95 8B 1C A3 52 BA F8 B4 E0 9E 50 A3 C5 64 D4 8D
 40 1B 67 C4 7A DF FA 82 25 67 94 50 E1 B6 BA 8B
 6A 8A E5 34 68 6D 08 6A 85 D5 3C 58 BC 74 B9 52
 9F 98 83 66 38 FD AD 19 42 5E 8A 70 15 43 40 0A
 03 A3 D3 0C F3 B1 BD F2 82 AD 61 3F 80 05 AD 42
 0C DD 1B 23 DA 94 95 44 AF A8 F2 E8 DF 74 39 59
 15 9A 4E 5C D3 D1 8F 2F 3B 18 2F 06 33 E4 9F 4A
 8A 09 E9 C3 C4 9C 70 0C 6B A1 9E 41 F4 93 98 55
 7A 0A 48 CF BE C9 64 3E 56 71 1B BB F1 92 91 09
 2C D5 8F ED 02 58 1D D2 02 82 2A 52 FC A1 C3 7C
 D3 AF D0 C8 3A 27 46 66 5C D0 34 6D 53 3D F3 F7
 0D 27 C3 C3 7D 6D 00 31 2E F1 59 55 B0 61 02 14
 D5 17 12 1E 41 32 04 A5 43 A6 B8 57 20 60 6C 70
 D7 61 FD EF 8E 71 9A CD 7C AB ED D2 E8 2B 33 E2
 C7 59 43 F0 D2 EC D5 B1 DA 29 3F 91 7B BB 8C E6
 80 3F 04 D4 16 C2 10 96 B4 81 03 96 3C AB B4 D0
 37 89 67 26 72 B1 FC 1B 16 A8 3F 20 2A 2B 1D E5
 6F 2E A1 11 7E EC 52 42 57 6D 44 B6 74 B5 4F C6
 BD EA 62 A2 50 E9 87 DA AE 01 67 41 68 94 90 7E
 DE 48 6C 02 36 B2 31 CB 56 44 EA 99 26 32 FF 04
 7D 11 94 1F 5B C4 06 A9 7F 45 5E F7 6C 23 1B 3B
 2E BF 18 21 E1 AC 9D 94 52 82 5F 0E DA DB 8A 46
 E4 FA 72 C8 45 77 07 97 B7 D2 82 71 F0 D9 9B 8D
 B3 C0 D1 43 31 01 59 8C 25 44 1F 4A 57 84 01 34
 C4 CD EC 7D F3 18 07 7D CA 20 05 7B F5 14 5C D7
 90 2C CB 7C 9B 92 13 1F E3 A8 79 40 DC 12 BC B0
 78 12 BD 1E 96 BF F6 FA D9 24 26 6E C5 BA A7 8D
 FF 85 E6 0E B8 42 4C 77 33 37 91 6C F0 CD 83 F6
 69 77 D3 3C 40 55 6A 03 AF 34 E9 A7 60 BC 2D 2D
 DB CF 3B 8D 6C 21 96 FD 48 81 8E C1 0C C3 08 0E
 13 FD 44 8A 49 89 64 88 68 7B A3 3F D2 8F 8B 98
 76 71 79 A9 CE BE 05 CD 54 D4 3C A4 5D 84 CE 21
 2D 79 D7 FD DD BB 9C 8B 56 C4 52 80 1E 61 F4 0C
 E0 46 5C 6A DD C2 EC 32 AC 08 3A 9E 62 98 6F 4B
 57 F1 E3 00 3E 0B 41 25 EC 60 78 AA EC F6 2B F7
 4C 20 08 4C 56 35 00 44 72 B3 9B 10 2F A7 7D 0C
 53 8B BB 70 32 E0 BD F8 73 26 D6 18 0F 85 53 35
 8A 73 9B ED FA EF 99 BE FD 03 4D 32 42 DB B4 01
 34 EF E6 ED 06 47 A7 D9 B1 6D EC 94 B0 12 E2 E4
 C3 88 04 23 34 D6 77 E8 03 09 46 A7 CD 76 1B 80
 D0 F0 30 78 61 98 BA F7 C8 9B 52 EF FF BD EF 3E
 D0 AA 9B 5B 15 E6 3E 5E 70 0C 07 65 47 11 CB B4
 13 5F FC 9A 20 4F 9D 62 2D FE AA 19 36 1B 19 30
 69 7F 4E 0D E1 EE 1A A8 9F D0 86 95 2E 62 75 E0
 99 68 26 7E 4A E5 CA 1C 9C 33 CB E0 6D A7 18 4D
 70 02 5B A3 4A 8C 56 20 A3 DB B7 A5 3A 4B 77 13
 52 B4 C3 12 D0 B2 E0 A7 55 6D B6 E7 6E 0E FB BF
 23 62 F8 5B 4A C7 A2 88 2C D7 7E 6F D6 72 FA 87
 57 98 0B B4 76 07 1E 7A 42 D2 06 18 04 33 C4 F2
 85 88 FC 62 A8 7C 7A 49 59 64 6B D2 12 0A 79 B3
 22 85 18 2D 2E F0 C8 3D 4A 7A 1F C3 78 41 AF 0A
 A1 BB 34 FF F5 5F 9F A6 26 03 01 82 9C 8C CC D7
 1A D2 37 7B 91 97 0D 90 1B 84 1B 58 B8 4B EF F4
 F1 E7 9F 3E 07 CD 49 5A C9 19 27 8C C6 5A D4 D2
 D1 44 35 6F 18 88 A3 09 14 51 8F 3B C7 14 B1 23
 2C 3A 2C 35 62 80 8B 57 7A 1A A2 27 C6 F7 D6 45
 28 C6 18 4E CE 50 EE 44 88 97 0D 92 F5 9C 34 47
 A0 DE 8B D6 B1 D6 9A 09 26 19 0A F1 24 DD 5D 8C
 57 F5 71 72 36 54 78 96 76 CE 69 7C 42 F8 03 CB
 9E 03 95 E6 36 A1 79 E4 9D 03 86 7C 3F 2D F1 1E
 DE 09 90 BD 15 E2 FE D9 ED 79 B3 5F 77 05 B6 87
 56 EB C5 80 7B A0 4C D7 D9 8F FB BA C9 4E 41 0D
 8A 54 5A AA BA 6C 9F AD 37 49 EB CC 9B 90 25 41
 ED 33 B4 D6 04 87 E9 54 2E E3 C6 E5 D5 B5 0C 51
 70 F0 20 AA 02 6F 4A A4 C7 19 DC 90 10 97 D4 ED
 E1 74 FB BC 99 4B 1C C6 DD 91 17 57 0D 38 B1 7B
 DC F4 64 19 44 9C F1 94 6D F0 2C B0 56 70 E5 BF
 1F BA EF 59 0D 23 C6 AD 36 6E 08 70 8F 3D FA 27
 80 B6 EF 9D 2E 90 1B 88 74 1D 16 F8 0F 0D 85 C6
 7B 3D BE 59 60 52 7A F9 FE 1A 0E 86 5E 58 5B 77
 3A B8 DD 53 3E 61 20 14 3E 97 FA A2 16 BF 94 6F
 05 42 78 0E 53 F0 07 A5 E5 96 4E 67 10 05 66 C9
 3F 79 62 8E A8 25 EC 1F 1C F5 40 A8 22 AC 68 CC
 97 C3 33 A8 10 C1 23 EB FD 25 13 8B 2D C7 F4 E8
 BB 22 78 B5 7A 28 C6 4A D0 3F 33 D8 E9 BA 4D 04
 86 42 AD F7 2B 7B 0D 1A D2 53 FE 5B F5 48 8A 72
 43 89 4F 01 1B 28 DF F4 A0 4A 4F 61 3E D4 B5 81
 D2 4F 10 8D 9D A2 77 DC 88 5F 19 B4 CE D6 09 F8
 DF 25 98 D6 CC 7F BA E0 79 84 66 83 FC 94 4F 99
 70 46 47 E3 3F 91 B6 7B 1C 59 C3 48 97 F6 2E C7
 B1 0B 95 88 97 86 45 FC 46 F3 F7 09 1D 43 27 AD
 4A A9 D6 CF 87 75 13 08 A2 A3 97 03 1B 19 55 E1
 55 0F D3 A2 89 2E 23 6D 86 BE B9 AC DC EE 61 12
 F8 E3 FD 8A FD 4D 54 AC 4B 04 51 1A 1E B6 FE E1
 A7 83 28 0C C5 A9 E3 71 A1 CF 55 BA 11 B7 5F 4E
 22 18 F2 91 2B 47 A1 2E 7E 9F 13 93 71 49 FD 65
 DF 65 22 05 8C E4 6B 06 CF 6C 15 C9 AA 7F A7 A5
 EA E2 48 BF 55 6C 2B 78 8D 9D 10 94 46 D3 76 E5
 FB 4E 28 11 9A 89 E9 BD 1F 45 B1 13 CF 04 36 5D
 11 47 96 B1 4A BB 60 D0 5C 2E B5 FD 84 C4 E4 7A
 9E 67 3F 32 42 AC 2F 5E B6 0B B0 92 38 4C EB E8
 A7 06 15 C5 EA DE E0 1E EE BB D6 1E 81 0A BE 6B
 15 29 72 2C F2 45 3B 91 21 53 5E 1E AF 8A F6 DC
 8F 69 B9 65 7A 10 97 FE 82 D3 8C B6 32 6B 14 C7
 3B 3A 9C AB DB 29 57 C2 CA A4 DA 4C BD 92 73 4E
 60 AA 95 DB FE F4 A5 F4 EC 50 7E 9E 2E 1F 50 1F
 75 54 71 40 32 5A 3B E6 52 D5 2E A9 40 8E B6 1A
 AC 45 E6 01 6E 88 A6 4B 3A 82 8F D6 93 32 D3 D3
 42 61 0E B1 07 DC 40 E7 6A 08 66 1F 19 FC 59 EB
 D9 34 37 78 B2 13 E8 6A 04 24 C3 4F 2B D9 FD B5
 11 47 4D 36 A3 15 FE 0C 6F 95 29 9A 7D 7F 2C 42
 3C A1 25 4C 0B F3 18 6D 26 BA 30 A0 E3 A7 B8 3C
 D4 BD E3 78 35 47 69 A3 BF B4 00 09 76 74 D0 C3
 09 E3 F6 4A 47 97 85 9E 0F 98 25 7B 2D 6D 19 DB
 B4 E0 0D CE 42 4F 5C 12 CF C0 22 65 7B DB FE D9
 DB BE 5C 2D 21 C6 CF 9B AC 63 DB E3 A5 FD 73 B3
 D8 99 22 82 6A B5 F0 8F 3E 43 41 1B 78 0C 77 9B
 C2 BB FD 88 B8 2E A3 9B 11 16 E1 05 DF F1 B6 3E
 B4 5E A7 B0 F2 3E 40 51 6E 18 5F 62 BE EE D4 B9
 BF 52 CD 34 9E D2 E4 17 E3 BE DB 58 88 A3 94 E9
 60 92 24 0E 86 D8 34 EC C7 5F F0 89 2B E0 7E F8
 05 FB 50 1C D4 53 65 A7 03 B5 D4 37 56 BA C6 3D
 94 4A E4 AC 31 0A 35 8B 6E 28 92 DB 67 D9 9E EE
 A0 35 73 31 B1 28 39 85 77 36 DF 4B 7B 07 FF 9C
 EB E3 66 B2 8A 37 C1 FB 8D 85 B8 0E FA 12 8F DF
 DF 64 CE 03 C9 17 38 81 CF 19 0D 65 53 22 A3 55
 95 91 65 6B 9B 67 53 6B 8D 9B 89 01 E9 21 00 D2
 C1 54 0D 44 A1 72 1E E5 35 7E A7 D5 E6 AB 27 33
 63 62 55 08 E3 50 44 9C 03 49 8A DD 0C 48 70 01
 24 9D FE 1A A2 EA B6 53 44 A7 40 53 2D 24 56 FD
 09 E8 2B 2A F5 76 B4 00 44 D3 C6 A4 08 5B CD B8
 95 37 53 5A 7C 40 74 B9 28 F8 A7 65 69 DA F9 4F
 B9 78 CA BE B6 C7 5E 2C 5F C2 7C 7C 8D B2 C8 8F
 EB 39 B1 BB 3F F5 74 77 C1 69 F1 B3 BF 4D D7 0D
 AD 1F 91 CD 3C 67 FC 3D C7 D6 E1 67 A5 C1 00 E5
 42 8E EE C9 F0 5B F0 1C AB AB 99 21 E8 60 78 BE
 CC 06 77 4E 45 C0 5F 00 8A B3 0E 18 87 85 47 94
 6C 49 38 78 D0 CF 88 AE B2 0A 8B 32 B0 2D 0B 19
 EB 3E 86 88 87 58 96 DD 59 20 20 5B A1 4C 4E C9
 01 30 7E 85 C0 FF 6C D2 7B 5D 93 96 D7 12 D1 89
 23 70 B6 B2 7F E7 B4 13 A8 CB FD FF EF 7F 19 6B
 08 88 DB F4 C8 E8 FA 3C BA BD 4B 86 38 D3 B2 B0
 0F 8B CC 09 B8 CC A2 DB 5A 6F FC 4F 57 59 5A 64
 A4 C0 A0 87 64 04 EC 23 49 20 00 2D 29 B0 9C FD
 F7 DA 57 69 95 83 B2 F9 BF A3 47 E0 86 7B 5B 60
 E6 F6 C0 37 B8 43 64 66 98 72 17 08 40 62 D4 09
 6E 7A AD C4 06 47 32 84 89 30 DF 3E E7 EE AB 2B
 45 B8 2E 54 F5 1A D6 78 CC A3 CA 20 18 3F 24 4B
 E2 08 5B 5D 06 C4 2D 17 96 A9 48 11 7A BF 57 9B
 DE AC 04 FF 70 03 BC 50 D8 2B D3 45 9C BE B4 B4
 80 08 4B 71 54 59 3E FA 60 F1 30 6B 78 1F 71 3E
 5B 4B FB A7 19 1D 22 6A B5 ED 0B 73 32 60 DC CD
 60 36 36 97 7F 48 07 5F 33 74 AE 80 63 98 D0 F2
 B8 DA 61 2F 36 69 14 85 0F A4 F2 03 94 79 CC F8
 84 AF 09 BF 29 A0 5E 56 36 C5 57 5A 16 84 56 C9
 E4 09 FE D8 CB DC 90 1B F5 5C 90 31 61 3C 02 0C
 6D 71 EF 4C 4B 32 66 85 E1 26 3D 88 26 0C 76 25
 47 9E AA 6F D5 AA 09 F3 A6 FE B2 D3 32 5F F5 1C
 69 E8 05 1A 9D 0F F5 BC 9C 52 B8 D0 B0 43 DD 6E
 5A B2 4A DC 1D EE 9D 6C 1B C5 90 11 34 38 0A E5
 3B 57 EB 97 71 3F FF 9B 78 E3 32 19 33 DE B9 48
 5E 67 A2 0F 53 D9 17 5F 6F 4D 7C ED 74 C0 68 44
 45 1F 35 3D 0E 70 1F 4F 61 E0 3C 49 1E 7D A4 87
 FF C9 81 63 5E F4 58 27 0D 27 26 D1 E1 E0 EE DC
 07 78 55 C7 BE 07 F6 CD 8B 6F B8 BF A1 2C 52 94
 AD 12 23 EB 8E 1B 2E 8E C1 84 BA 53 98 F6 E3 8D
 27 CB 51 67 84 37 6B 73 79 A5 B7 42 18 51 74 C8
 E4 40 AE 9F C5 72 9E 24 D1 B5 0B 85 19 2F 82 3D
 BD 6F 6B 45 25 0F 8F 29 71 DB C5 3F 5B 40 04 E1
 35 7E CB 90 91 D4 08 15 76 41 7A 12 CB C4 AC 50
 00 EA 42 3D 72 40 E0 30 87 69 65 F1 F7 02 1F CB
 AA 36 D7 CA 65 7D AD 93 50 CE 7D 53 F4 69 AD 2C
 CB 04 67 90 61 F3 06 08 70 3F 0D BD 8B D1 03 4F
 E4 83 3F B9 38 78 ED 8D C2 A2 ED 6D 10 0F 4F C1
 D9 B8 29 64 F7 D8 BB FC AD 66 64 57 0C C5 CE C3
 1A 21 71 0F 4E 93 35 3B 3F 84 E5 BE 2B 8A 66 C8
 DB B6 23 CA 73 50 CB D2 16 39 52 35 F9 BE DC 8A
 4F C8 B2 F6 96 E1 F3 37 DF B6 D0 66 8C 0E 92 8B
 C1 67 6B 0C 9F F7 FF 77 CD 14 E9 F3 E5 DF E7 D4
 F9 93 61 88 A2 55 35 6A CA 44 26 6F 0A F7 F5 3B
 01 22 ED 99 3A EF 78 4A 9D 7B 39 19 9B 99 C5 8E
 61 1C 9B F5 FC 85 B0 4C 9E 51 C3 CA 6D EC 5A D2
 F4 79 5C 9F 52 E3 7D D7 34 53 69 26 1F C6 28 80
 D1 E1 17 5F F8 BE CB 84 BD C0 1C 13 5C DD 15 A8
 88 9D D9 F2 04 01 CC 29 2B 9E 1F 5B 0C 09 45 E5
 22 6B FB B9 9E 32 8E 71 64 65 F3 29 8C B2 14 5C
 08 52 6E C7 99 5A 70 B4 85 4F 9B A3 39 8E 01 C1
 5B A6 5E A1 23 D9 0E BC EA 36 6A BF 3D 03 56 D6
 91 E2 CB EB A6 27 77 91 11 F1 5C 9B 1B 83 80 0C
 D1 03 7D 2A 81 F2 8B B9 99 43 9E 71 B8 1B 24 D3
 AF 14 3D AB 29 C9 5E B4 81 DB 50 7C 9C 1D 35 73
 D0 6C 9C FC 0F EB EC 81 93 0F 41 C1 A7 E2 9E C5
 34 52 11 C0 53 04 2B C2 C9 EA 35 9F FD 5D 52 AD
 69 BC 11 3B 6F C6 DA 5C 72 BB FE 14 4A C7 DD D6
 4C 70 7A 7D EC 00 A4 EF 68 63 5F 74 61 07 27 22
 97 DC 95 6A 8B F3 65 20 6B 64 34 08 A1 C1 06 12
 81 BC 0F A0 05 BD A2 57 8B DA 08 3E 14 8E 21 07
 95 63 F3 92 54 0F 4F 02 BC 46 A9 70 E3 D1 E8 A0
 A9 4E 41 04 2D 1A CC 01 3F 10 A6 A7 47 CA D1 85
 43 10 5F 4D 18 B9 E7 B2 C7 C0 F8 22 2B 97 44 6F
 6B F8 64 2A C3 7D CE 17 12 C8 1C EC 5D 30 04 18
 FF BA 20 BF 23 93 50 CD 73 B0 B2 70 B7 A3 4D A9
 CF 36 14 C0 B0 2A 00 C9 C9 F2 CB C4 6B 47 70 3B
 A2 94 0D 8D 21 7B 7C 73 AC FE 15 F8 1E 29 FA 8F
 F3 33 DE F7 4C A3 2E 6B 81 70 03 FA 70 34 55 F0
 F2 F8 EC 0B 0B DE B7 DD 47 6C 77 5C 04 E1 89 F4
 20 8A A5 4B C8 A2 2C D1 90 7B 6B BF 28 66 8C E1
 78 30 82 6C 35 C6 D6 28 50 7C 4B CC F0 56 96 B1
 C7 11 53 09 E8 52 17 98 8D A4 42 4F 2B FB 83 83
 1F 4C 76 F1 8A 5F A9 CB 9C C0 D3 57 01 8B 68 9B
 ED 1D 52 C1 61 75 C3 A9 5F A9 A7 66 07 59 F5 CE
 9D 3D F9 60 B3 4E FF 9B 0C 52 13 87 68 C8 72 49
 E7 AF D2 AC 48 FB BA 8D AB AA 88 8D 5C 1B DB D5
 8A DF 82 45 5F B8 D5 7D 00 5D BC 69 AD 13 A1 06
 20 C4 EF 29 43 B6 AB 66 B6 DE D1 02 FC F7 36 07
 11 6D D9 27 21 15 96 21 A2 AE AA 3C F4 E4 F7 33
 FE 92 08 A4 4E A9 66 D2 6E 81 11 E6 65 26 27 65
 74 D3 A1 41 4B DE 8C 0B 2D 38 86 11 2F C6 77 69
 42 65 A1 D0 0D 1F 46 E3 71 40 8E F6 49 F9 29 E9
 A1 C0 B9 2E C1 42 41 56 DC 04 9E 9C 56 35 01 98
 8B 3E BF 59 10 C5 4E 2B E9 05 EE 9A E7 29 49 AB
 8A 52 4A D5 25 BB 8B FE 6A 2B E1 C8 3C D2 48 55
 ED 23 8F E3 69 41 F3 24 CD E8 8D 17 1B 16 ED A7
 78 D4 D1 0C DC 96 9C B8 31 96 69 4E 2C 90 18 D8
 5A 04 CE 7F FB 61 C0 6D 1B 3F 61 ED 30 79 2A 0C
 E3 F3 5C 24 26 D9 E0 C4 BA A1 B1 BA D4 19 F2 59
 C7 70 3C 94 72 EF EE 82 C9 46 A9 26 3C 4C 53 A1
 B4 01 F1 1C D8 91 25 64 CD 4E F3 26 0E 1A 88 1F
 E0 40 96 1E 61 58 50 18 A6 51 02 FB DF 1A E3 EA
 96 51 B1 D7 A2 28 AA BB 2D 57 C7 C0 E4 D0 42 1E
 D7 20 A2 C1 73 76 FB 20 61 63 21 A8 28 24 48 D6
 09 7D 8F D3 F2 1E F4 35 7B CB 8C A8 A3 82 78 75
 81 FC 93 E2 CB 0A 2D 5F 16 76 C5 73 54 96 9A A2
 88 2C 9E 69 51 A5 55 75 F1 06 60 84 C3 EC 62 B9
 84 E8 52 52 37 DC E4 C4 7E FC 77 4D 2E 95 61 AE
 9C 83 2D 5F A8 0D C7 0D 7E 06 0C 2C AB CD F2 CC
 5B 00 2B FC B8 E9 0C 93 F6 55 79 14 07 09 AE DA
 1D 66 0A 15 75 7A 6E 12 77 9D A8 0B 20 86 31 DC
 23 CC 32 1E 83 EB 07 00 0C 49 22 ED C9 2C 68 85
 25 15 83 68 ED 6B C7 DA 2A 3D C7 17 B2 9C 84 C1
 6F 8D 48 D2 29 F5 A1 5D B7 72 E3 F2 7B 5B 81 28
 83 5D FE 22 49 76 B6 D2 9E C6 AF B1 F9 D8 A6 9B
 5B 42 73 46 50 98 81 C7 B5 28 C6 88 A2 F0 67 29
 FB EF B9 AD 65 5A 92 2F 9F 94 53 56 68 76 B6 8F
 F9 B5 23 7B AC FD A3 06 F3 49 F2 3F FA 3D 5F 90
 8D DB 75 0D B6 09 50 C6 98 F2 83 82 5A 76 F2 93
 9E AE 9D BC 6F 97 27 4F 81 17 DB 4B C5 EB 81 0B
 5D 62 6D 5D 74 95 7E EF 5A 48 11 C8 6F 2D BF 02
 A6 0D 87 9A 34 B4 38 9B E1 08 31 FC ED 50 83 27
 BF A8 CE 24 B7 76 97 40 60 15 14 68 63 57 67 35
 73 77 D4 EB DF BF C1 AF 6B 25 3D 34 84 63 AC 6E
 C3 A0 45 5A 17 AE 41 75 B8 59 DC FF 26 48 CE 58
 9A 79 79 4D 93 D0 1C D3 A3 6E 28 CA 55 E2 52 F0
 49 A5 5D 02 1B 60 38 5E 28 FD 1D 40 FD E4 5B CF
 0F 4B E7 42 EA 04 22 A1 C7 C0 7D D8 C1 A2 3D A9
 B9 8B 4D 2C A0 ED 2F 7B 3F 70 9B E2 CE FC C0 77
 37 0B DC 6E 91 2E 49 23 C2 80 B3 68 D8 72 4E 54
 EF F3 89 49 26 72 AD 02 61 54 A7 09 01 20 F2 60
 4D A1 24 C9 98 36 10 C5 3B 2E 0C 1D F0 52 CD A3
 29 3E 75 35 DF 5C C7 96 81 4C 56 F1 E3 F4 82 C8
 5A 1F 14 45 BC EF 26 60 BD C2 64 64 BC 61 98 8D
 94 AD 2A 12 D1 BB EF 94 3C B0 92 1F 68 62 86 31
 9C 9F A5 D6 8C C1 63 22 1C 5A DC 5E 13 F8 7A A5
 78 CB B9 0A 3B F5 A9 9A A8 C8 7A 71 76 CE 7D 5A
 FA 9B 13 E6 57 A0 9A 0A C8 C3 23 C2 29 4F 55 CE
 BE 07 BD 1E 87 C2 1F 44 1A 17 F7 29 D4 14 BA 53
 0D 7A 09 F1 89 23 C2 F8 54 0C AE 37 F9 8C E0 56
 97 E8 43 E3 3A A8 52 1A 3F A8 3B B2 23 54 30 6E
 AE 5A 57 87 BF DF B1 66 7D 39 85 B7 23 FD FE 1E
 53 DC 5B B9 6B C3 1A 0C F1 78 A5 51 A7 37 3B 1D
 47 18 24 05 61 93 4D 31 1B 21 69 25 5C F2 BF B0
 F0 A5 47 E8 C6 D6 0F 9A DF 94 93 64 AA 7D 19 A7
 55 7B A5 66 AB 98 EF D5 DD D4 C0 F1 3B E8 9F F5
 2C 40 66 40 9D 9E AC 65 2F B6 59 76 49 29 4A 0A
 B9 26 78 91 F5 E8 7A A8 30 FB 69 3C F5 5C C6 4F
 B5 36 A5 AA 45 8C 64 E4 16 D0 53 F0 DC 09 7C C6
 43 3F 2A 3D E6 8B 99 AB B9 7C 9C EB 4E F0 9B 23
 F0 64 E0 13 76 B6 50 08 BA 07 FF 77 70 26 92 A1
 16 72 89 C3 78 A5 14 A6 F1 97 6E 7D C4 CD A6 98
 98 A7 B2 CB 2F 5E 5B AE EB 97 FC 25 A6 DC 3D 4D
 2D F3 9A 60 EC 88 26 A5 D8 D8 F8 AC 81 DD 9D C1
 7F 71 F2 08 73 36 B5 B7 F4 5B D0 0F 3C 4C CC AD
 05 49 28 E5 5D 00 6B 60 31 D2 F8 15 91 82 62 B8
 63 82 C8 11 4D 60 08 5B 83 94 46 00 68 F5 EA 96
 59 48 ED CB 02 FD 86 0F 9F D9 9F D4 6E 4C D9 56
 F4 BA 7B CD B5 7E 6C 11 BF 7F 04 79 FB C5 D9 A5
 BE B8 A4 54 E1 85 97 E5 62 BA 08 64 CC A1 4C 30
 32 7C 7D C3 B2 BA C2 34 85 56 B8 0F 3B C8 CB 04
 6F 4A C4 5F 38 86 EC B8 CF CA E5 0D 8D E7 EB 99
 B7 A3 D1 27 D8 50 C6 32 7C 0F AC C2 05 F4 DB 39
 D4 70 85 4E CE 7C 0E D5 9D 14 D9 A2 58 54 BD 2A
 70 24 45 A5 A8 5E 1D 93 08 BC F2 1A FB 34 45 DC
 5F 49 AD B9 5A 78 EC 12 F4 1C 91 3E 04 F4 FC 7E
 0F B1 6B 5A C3 84 84 24 07 2F AD A2 1F C1 E1 B9
 07 DF 2A 77 29 52 95 4E 4D A3 6B 0C 1F B4 49 56
 B1 D0 ED 07 D0 69 21 1F E4 CB E7 28 48 BC 8E 5F
 DC CA 83 AC 03 CD 65 F2 3E 44 52 C8 C9 EE 72 FA
 24 ED 9D 93 7C B6 E4 0A DD 51 12 2D AE BF 06 3A
 B4 A2 02 F7 F4 00 7A 29 C7 68 9B 22 1C 61 D9 1E
 47 5E 72 72 96 EB E7 93 25 92 1B CA F0 4D E7 75
 21 DD C5 3A DF 72 CF 7C 6E 44 7B AA 71 92 B3 A1
 67 D7 21 C5 4C 8D 14 81 4B 70 EC 8F 83 65 7F 19
 F6 99 E1 3D 47 66 BB A3 CF B7 ED 1C 68 0C 5D D2
 98 77 73 AB 4B 13 8E C8 E7 CB 83 B9 21 56 3F 9D
 68 7B 0F 7F B7 0B 59 2D 3C D7 C4 D8 72 EA FE 24
 BE 27 12 A2 59 E0 EF CC 51 D6 65 49 0D 67 7A A6
 D8 F6 B5 85 61 EE 8B 44 79 0D D6 A1 25 36 69 27
 D9 E2 BA E2 59 E1 F1 A3 98 1A F7 6F E7 1B 7E 85
 4E 5E 4E 2B B9 CA 7F 9F 7F B8 0B 3F AF 72 38 9E
 D9 B4 38 9E BE 51 A7 1F 21 1E 3E F6 93 2A 79 61
 87 41 BF F9 99 B1 DB D1 54 E2 7C 07 D4 73 6E ED
 81 55 C9 86 50 12 53 70 F5 18 FD E4 85 2E 39 0A
 88 99 68 EE 82 A1 CA 4B
* End 3011116013 1430292193