* LTspice Encrypted File
* 
* This encrypted file has been supplied by a 3rd
* party vendor that does not wish to publicize
* the technology used to implement this library.
* 
* Permission is granted to use this file for
* simulations but not to reverse engineer its
* contents.
* 
* Begin:
 E6 F5 6A DD 34 8A 9E D6 93 82 17 2C 77 96 38 21
 18 1A D5 61 5B 8D 43 C2 DA 3E 41 BB 23 80 5E C7
 07 F1 57 5C 71 58 B1 D2 FF 1E EB 08 BA 76 5A F8
 BA 1E A4 1A 08 92 C3 2A BC FF 1F A1 F7 0E 8F 23
 14 18 6A 2F E5 F1 53 F9 B7 60 76 81 F0 20 9F BF
 75 7C 4A 1A FC 79 58 FC FC 4E A2 E2 5A 37 FA 29
 C0 88 41 FD E6 03 98 DA DE 9C 4F C0 D3 BF 3D 00
 1C 69 E5 5A 80 46 F0 51 86 28 D1 58 E3 E0 76 F9
 83 0F 85 C5 C4 FF 16 67 28 18 FD EB 7C 15 BE AB
 40 33 AC 5A 2F C2 AD 93 AF 6B EE 07 64 E0 D2 A0
 09 FE A3 67 0B 8E F9 38 CE 82 2B 4E B1 7C 09 83
 33 BD 68 32 77 0A 5B 82 29 DC 1D 0B 70 7F 36 3A
 F4 64 EC 48 BD 29 12 B1 F8 FA 13 20 8C 4B A0 A9
 C8 8E C0 5D 09 63 FB 50 78 55 92 E3 3C AC E9 52
 26 7B EE EF 11 B0 47 3C AC 37 EB 49 2A 8B 7C 74
 3F CA 3D 57 BE FB D5 68 E6 B2 0C 23 80 11 9F 06
 03 17 04 E3 2F 1D 7D A7 08 31 74 8D 8C 4D DD 43
 07 A3 FA 8A 0F DF C0 8F B4 EA BB 43 27 6B CE FC
 39 48 2C 7F 19 48 E1 53 EA E8 B2 63 58 A4 F5 0E
 B9 2E F0 40 84 CB 42 76 5A 79 AE CE F3 22 BA D2
 91 9F C4 66 13 FB 25 50 21 6F EF 04 83 09 02 CF
 7D 43 FB 9C 1F 15 2C FA AD 3B 32 6B 16 87 69 AD
 E0 EA E6 B5 C0 E5 51 A7 E0 BF 6D 30 A9 DA D2 AA
 AB EE 15 92 F2 EA E5 67 4E A9 D8 6F F6 99 B9 A8
 E7 AF 2C 72 E2 2B 1A 7B 7D 54 27 6E BB 72 4A 26
 02 82 AA D1 7B 2D 67 9C A8 D0 58 04 5C BF EB 71
 E5 F9 2C D4 E1 84 BA E0 01 97 AF 4E 93 47 41 88
 89 A9 25 8C F9 BD 17 2B E8 27 CE 16 B2 7E D6 25
 FD B9 44 AC 14 8F D2 84 CC 12 10 F4 B3 DC CC 83
 D5 42 E6 AD 61 73 A7 58 56 80 20 40 29 2B 58 B6
 66 AB F3 B0 56 54 04 6A C5 48 78 AD 16 BC 0F 09
 F2 D6 81 B9 63 F7 D1 FA 46 EE 6B 6E 8F 2D 73 94
 3C CA 6F 11 0A B2 BF C6 DC 25 EA E9 08 9C B8 C9
 70 2C EB 9F 60 6C AE EC E7 4E BF 94 45 D1 DA F7
 38 7D D4 82 88 B4 F9 1A BA 8A 5F F8 10 A4 8B AF
 4E C9 06 8E 36 B9 D0 4C D3 0D 9C 7B E5 A2 E0 9A
 EE AE 0D 12 28 C4 F5 B2 B9 0D C0 9A 5B F0 28 3D
 A9 0F 1C 24 FF 55 D2 F6 61 5D D6 BB AE C1 67 D0
 81 3D 95 E3 F6 36 16 45 A4 D4 AE C5 0C 07 61 32
 1C BC C6 3D B0 65 A7 14 B9 FC 95 79 A7 E7 AE BF
 2C DF 3E CE B8 DF F7 0E 13 5A CA 83 D3 28 D6 8D
 B7 AD 3C 38 DC A7 82 12 52 01 69 25 EF E1 76 38
 CD 10 E2 A8 61 9E 62 72 35 2F 52 A7 A9 A9 C6 2A
 72 AD 9F 73 3A CE F4 17 FD 12 36 18 0F AD C7 6A
 E9 CC 77 5A EE 15 56 E4 16 81 4E 87 A0 EE FD 07
 DF C8 5B D4 4A 3B AC 0F 1B 36 69 4D BE B4 C0 02
 56 5C 35 43 D6 0C A4 EE 6D 5A 06 83 71 18 0D 75
 8B 31 6E EB 27 38 2A E1 A5 0A 23 03 9F CC DD 78
 BA 16 86 6F CE 63 7D 56 49 4A A1 36 C0 F6 9C 8A
 5E DF E1 14 C1 0A A0 58 41 19 E7 97 67 37 BE 3C
 03 3B 61 AD 65 0E D4 9E DB D8 AC E0 DA E9 51 B6
 F5 68 60 E4 22 D3 73 46 30 37 25 DA 17 26 88 EF
 D9 20 B8 54 D2 70 9B DA D2 24 1D F5 66 5D BE 16
 5E 60 08 16 09 F9 09 96 37 AC 8B 6E 56 DE 43 77
 42 03 B7 82 06 B4 06 6B 27 FF 05 90 DB 27 AC 57
 D2 BC E4 4F 8F 26 1D 2D F4 3B 0C 36 FD 4D DF DE
 37 2A 64 B2 33 23 A2 3F 2A A0 EB 83 30 91 F6 48
 E5 4E 93 84 2D DB 0B 08 1C 8B 56 54 89 1E 49 F0
 FC 6D 8B 0B 5B E9 FE BC 4F C5 83 1B 97 60 2E B2
 71 12 7F E3 1C 2B 7A 90 34 17 74 28 0C 7A AB 49
 97 F0 41 7E E2 BC 94 4D E3 F6 A1 27 3F CC D3 C8
 2C A0 64 FF 7F FF A2 38 8C 7C D5 A5 2A FF DB F0
 C8 41 1B D9 39 FB DF 2A 6B A5 2A 61 AC 2B 2E BC
 55 29 0A 63 BC B9 05 17 5F 92 1A CF 71 BF 40 19
 6C FE A6 7C 56 92 D2 66 8D D0 02 89 6B FB 8D 9A
 04 DB F9 E7 51 3F 69 BF 0D CA CA F5 F4 A8 99 92
 1E B5 F7 16 FB 31 6A 4A 2B CB 92 45 02 BF 81 04
 90 E0 89 E2 5F 97 A5 85 61 03 45 8B FB D1 2B 36
 B3 AB E8 D8 9C 22 AA 4F A6 A8 A7 09 92 E1 9D FD
 8D 5D 02 66 26 7A 91 13 92 81 3F 49 E5 62 9F E8
 91 25 E5 B4 57 FF 06 67 AF D0 C9 7B 03 1A 02 2C
 40 21 35 B4 D7 E5 93 DD A6 BF 8C 1F 04 88 C1 D9
 6A CB F1 C3 5E 8B 9A 6E EB 8B C1 06 9C 5D A8 3C
 80 D9 73 53 A7 7D 77 51 7B AF 5A F5 99 B1 3B 1D
 56 93 12 0D 8F 99 76 D1 4D E2 5B 19 3B E5 AB C0
 7A BC 55 A4 26 E8 71 D3 A1 85 38 38 2D 18 C8 1E
 E7 AF 8C C3 2E EF 03 E2 6C B0 CE 96 8E 9C D3 BC
 4C 44 33 73 8E C3 8F 0F C1 BD 64 DC 12 A6 34 F4
 0D 8D 0B A2 96 D3 90 A4 1F DC 89 6B 94 24 31 92
 10 DC 67 78 58 43 8E 7D 2A 91 87 FD 00 46 63 08
 6B 4A 6A 2E 9B 1A CF B5 F3 5E 25 3E EB CA 5D 77
 8A CF A5 44 07 E4 C1 14 4F F0 B2 48 62 53 3D 49
 61 DD 05 89 91 8D 74 66 3F 08 E0 7E 83 19 2D 8C
 13 18 69 81 11 19 69 B6 10 2A CD 8D A6 06 1F D7
 10 F5 19 5F 88 9C 4C A8 39 75 33 D3 17 B2 37 08
 44 08 A9 0A 10 FF B7 74 19 71 81 54 9D 16 80 EC
 7E 97 C4 3E 6B F7 91 8F 5B ED E7 AA 3D 82 D0 5C
 46 5A 9C 3A B1 77 A7 20 0B 0A 19 6F F5 59 C6 97
 64 D0 57 54 49 0F BA 3A 2D 28 E2 BA 6D CD 79 28
 D0 03 E4 B3 DE 30 27 11 35 85 47 93 C9 3D A6 86
 ED A4 B8 DB 6C BE 6D F0 17 E7 74 9B 83 CC 51 25
 6D AD 79 D9 BD 99 63 08 2B 67 06 75 26 95 FE AB
 6C 69 2F F8 5D 59 55 14 E0 2A 45 6A FB E9 A3 68
 EE 34 70 48 72 D6 F9 A4 68 C3 1C D8 4D 61 3F 9E
 07 EB 99 E1 E5 00 F9 0E 89 1E DD 13 49 6C CB AD
 CB A5 F0 3A 8F 25 44 A3 8B 55 6D 1A 16 14 7F 0D
 0E C5 AF C3 08 76 AE BE 01 71 D7 45 5E 65 E6 B6
 47 2B B3 CA E6 93 5D 67 A8 1E 15 D7 9D CB FC 19
 94 57 0A 2C B0 0B 83 07 D2 A3 05 92 DA 5E 03 CF
 EA F4 89 86 16 8D C4 1B 53 7F 76 83 EE 1C 3D 98
 05 F4 9C 3B C1 82 6E A6 36 B5 66 6A D4 BB E4 34
 3B EC 41 B4 4D 60 B7 DD F9 C0 6F 0C 78 6F 6F 7C
 07 12 C7 29 B5 56 C1 D3 68 3F 42 DF 3A E2 5D 53
 83 E5 3A DB 0F 97 7C 1D 5F AC A0 C1 90 6A A1 BC
 57 3B 00 64 26 14 95 CD 0B 14 96 01 6D 4A 09 8C
 80 C8 45 3C CE B8 36 A1 05 88 12 97 87 3B F5 5A
 E4 46 B9 74 18 31 D2 18 37 AD F6 FE 64 4C F3 87
 CB 8A 84 4D 04 D2 51 E8 B9 EE 09 77 98 6B 4E EF
 F2 9F 62 A1 43 D6 8D B6 53 CD B9 F6 DD DD B8 38
 FB 29 86 2F 00 41 F2 6F 30 82 67 41 62 B2 29 6E
 C2 5B 45 87 C3 77 A3 A3 84 97 84 6A F3 32 EA 7E
 45 F1 5F A7 53 CA 66 6F A8 5C E4 FF DB B6 56 29
 80 C9 6C BA BE BF 8A 20 92 08 35 3A D1 B3 98 ED
 18 8D 5F 81 4D E3 65 10 D0 C1 80 DE CA 76 27 10
 AD 71 B1 AB 8E 10 3F 12 D1 17 61 F5 71 46 A7 43
 09 BF A3 D7 87 8E C1 EE EC CA 19 4A FF C3 BA 8D
 7A 0B D4 F3 D4 08 F5 1E F5 63 91 B8 B2 79 D7 7A
 15 D1 48 24 72 41 C6 54 18 69 EE E3 38 6C 86 7B
 94 19 8A BE 4A C5 E1 1F 89 A2 5D EB 9E BE EA A0
 A2 16 EC 4E 2D 18 9E 40 71 57 29 82 0D 6E 92 3B
 8A A0 58 51 DB 28 3D 65 57 E8 4E 33 87 92 A0 1E
 0C 52 83 49 1A 64 A1 04 85 56 28 16 14 E6 FC C6
 E5 C4 63 35 B5 48 6E 40 42 61 B8 2D 08 32 F9 06
 D8 F0 AD 4B 7B C7 70 DC DB 9F 27 B7 37 92 41 63
 FC 3A 07 7D CB CF D0 38 A1 6C F2 31 88 8B 10 85
 3C DD 13 B1 52 54 94 1C DB BF 94 2B 24 D4 C1 9A
 24 C4 C1 73 46 5A AB 5F 9F 78 0B BD 79 2D CB 8B
 FF D3 81 52 9E B6 F0 A3 4E 48 36 48 B4 2F DD 33
 CE 54 A0 66 46 43 2C 4D D1 A0 9D 33 D4 36 83 4B
 DD 19 38 31 E0 2F EF 06 BD 7B C1 77 65 E2 F0 6D
 96 DD 09 05 A8 C5 15 DE 23 8B E9 51 47 B8 CC 41
 FB 28 AE D5 CC 6C 46 60 46 18 1C 03 5E C9 60 79
 ED D6 20 D9 D9 C4 0B C7 54 94 7E 3C 9F 0D 0A BA
 2E 0B BB BC 0B B4 65 D3 CD F3 4F 23 B7 FC 2C AE
 1D 39 0E FD 9D 85 66 41 3C 7C B4 FE D0 34 C3 16
 B5 50 C1 43 1F BD B2 96 6D 98 FC B7 1E 31 DC 4A
 11 97 F1 92 8B 14 76 87 5C C2 B0 1C 9E E5 5C 51
 18 A1 2E EF 24 D8 BD 7D 07 39 65 FC D1 22 37 1A
 06 6D 28 7D CA D5 0A 49 98 D2 6B FA CB 5F 99 61
 76 F7 43 A9 64 78 C9 B5 B2 FD 8A 8C 3F 6A 8E FE
 2C AA FA A0 EC 30 88 4A D5 27 2A 21 C2 40 FD B4
 47 E5 C7 3C E5 D6 28 9C 9F 91 56 1D CA 5B 3C 86
 31 E7 D5 F9 8D AB DE 3D F6 5B C7 C3 C8 CC A4 20
 E5 E1 CD 37 8B EC EC 63 42 05 83 DA 03 37 A3 E2
 6E F9 2B 7D 35 BF B5 6C 6B C4 30 DC DF 74 A8 44
 0F C9 3C 70 DC D9 B9 81 7E 93 34 E0 3B 05 71 0A
 75 7F E9 6E B8 DC 67 A9 F7 CB 49 8E 59 7F 01 0B
 F5 5F 9C 2D 23 A4 FD 01 26 0F AD 73 DF 0C AF 3F
 EB 85 64 84 45 46 17 57 43 D3 DB FE FC FC 5D 1F
 8A 77 92 E5 A0 AB 4E C2 6A 87 EC 56 54 BD D6 6E
 E1 26 D1 28 41 0B 9E 7B C1 29 D1 E0 82 6D E9 47
 BA EB 8B 56 C3 98 BC 1D CB 2E 67 A3 B1 A7 22 A4
 DC 90 71 AF B1 70 F3 D0 AB EC DA 1E 3E 8C FF 7B
 30 02 A8 E2 B6 D1 27 0A 26 75 8A C8 3C 13 FA A1
 6A B8 67 4C BC 34 95 12 E5 3E ED 09 E7 F3 0C D7
 30 3E 46 90 2F A4 BA E7 83 75 EA 75 D7 8B 0B 97
 B2 41 6C 32 DB 21 3D 9E 9D 58 FF 0F C1 57 8D A7
 C8 56 F3 F9 CC D9 AD D4 3E 48 F0 F4 9D 3E 50 AA
 49 6F 42 22 23 82 BD D5 72 1F FE C9 B9 7A 4A 8F
 B5 90 D3 F9 4A 03 06 18 20 E2 BA 44 90 3B DD A5
 18 E1 A0 12 F9 7D 91 7E 7F 90 85 E5 DA B8 3A C1
 3D B5 88 CF 01 5E 79 5D 58 7B 8A 9C AE 4A A3 D4
 1C 3A 66 43 6D CB 09 9F 5F 4E D9 0E 0E E6 97 32
 1E 12 E8 B6 4E 30 BA 90 0F 7C E8 AD 6A FE EC F4
 8B F4 D3 9E 3D 16 8B F5 6B 50 28 32 B3 06 79 82
 E6 64 15 34 E4 F3 5E 6B 45 6A ED 31 F9 10 2D AE
 71 6B EB 9B 2A E8 A0 B5 D4 2E CF EC DA 76 43 F7
 91 0A D3 AE 70 58 7F AB 81 8E 1C CD 91 13 45 9B
 B1 76 15 D0 9F 79 35 A2 CB 0F D2 60 FF E3 51 C7
 DC 49 8F C4 5F 14 3C 0E 36 F5 83 53 DF 96 77 C1
 49 DD 4D FF D5 7A A9 15 CB 02 2C 2A AE F7 C8 8C
 2D 91 EC 4A 92 DE D1 F2 79 03 2B 52 10 5C AF 45
 DB F1 98 85 E7 D4 AB AB 84 1E E7 E1 2C 63 7E BD
 9C CF 36 11 93 AD EC 42 0F B6 AA B9 01 79 C4 2B
 32 9F E1 29 1C 08 6E 9B 3A D3 D5 45 C6 A4 30 55
 FC 8A B2 39 BF A9 DE DA 21 45 E9 5A 2B AF D1 0F
 70 3A B9 98 94 6F 1D DB D3 31 80 53 52 72 5F B4
 DD 7A CB 2F CA EC 37 2E 6F A1 16 99 32 17 F6 C2
 EC 4F C1 8C 48 0A 43 F2 D5 01 00 9E E7 D9 89 BF
 DF CD 2E 70 FC 4E 5D 5E 85 B7 77 09 78 AE D0 03
 91 BD C7 F3 2A 95 B2 24 88 E5 BA 40 5C A8 54 8C
 0E E2 C7 68 E6 FD 29 35 BD DE 76 6D F0 1B CC 68
 DC F4 46 A6 FD 30 A3 9B 89 93 57 F1 09 31 24 BC
 6D 31 21 35 0A EF 4E 54 CD 87 03 AC 4A 75 A5 C7
 1C F8 B6 2C 34 32 E2 29 FD 9C 42 FE 97 92 23 F8
 3A 19 1E F2 F7 13 50 43 35 D5 FD FC B0 35 5C AA
 F2 C5 B3 F3 95 9D 03 C7 33 0C 37 83 D6 E5 5B A1
 A1 AE DD 96 44 D3 29 E3 D9 0F 4A C5 2F A2 31 22
 20 96 B7 90 08 8A CC 87 C9 F8 41 33 07 00 AD 1C
 7F E2 A3 CA B5 88 2F 5A 35 DF F6 AE A5 FA 63 36
 3B 15 4B 94 9E 0E 6C B8 9B 2F 45 D6 B6 92 29 8E
 24 82 3F 70 3B 12 FE 70 81 16 E3 D8 00 BF 24 29
 46 37 10 03 B8 02 54 0F D3 82 E3 B5 3A 7A 0E 8A
 76 08 B3 7E 46 85 E2 7F C7 37 AE 60 67 44 91 49
 54 4F 9F DD DD 1A C9 8C 93 93 F4 B1 3E E2 EB 4D
 EF 1B 4A 57 02 92 F2 99 DD 79 30 05 C3 2E 97 1A
 16 F4 64 7E CB 33 97 D3 35 40 B6 7C 6F 27 40 C0
 A1 93 B8 5D 9C 1B 94 14 36 EF 46 36 DB 40 6B 2B
 43 8F A3 D3 1E FE 0C 88 6F B5 D7 26 BE B4 78 96
 73 4A C5 A5 D8 61 7C DA 8B 5C 85 8E 80 0D 87 A4
 79 D3 B5 C4 32 05 F3 B5 8F 55 E6 57 FB 2A 77 74
 7C 3C DF CB F4 D5 83 77 B2 47 F0 14 C7 9C 99 AF
 92 DA F8 5D A7 DB 79 06 09 DB 7F 57 A3 E6 A5 47
 F6 25 4C A5 86 1C 2F 59 CC EE 2B F5 B7 4A 8E 0D
 45 0F CC AE E3 70 DB F6 63 AF 5C 4C F8 0E 4F 99
 3D 2F B4 8B 74 46 25 3E DB D3 5A 21 DC 8B 1F 69
 BC C0 75 3F C0 FE B2 6E 58 88 47 D9 65 DB CE 01
 F1 4B 8A 8E A5 9D FD 10 46 42 C5 A9 2B 00 6A A9
 3C 60 50 28 B1 8B 5B B5 EA F7 65 40 AC 31 1C 03
 26 11 FA 3C 26 D6 4D 13 27 FD D1 0A E5 86 A8 6E
 C0 AF D3 55 F5 C9 C6 65 55 A3 60 2C 7E 34 02 57
 9B CD F2 A1 60 FC B0 BA 42 47 37 D1 50 DA 7D EB
 06 C3 02 FF B4 A8 18 14 F5 A7 AF 30 9E E0 47 5F
 BA 92 38 9F 15 BF 86 7E 53 36 1C BF 38 88 0C 69
 4A 51 62 69 66 FE 85 56 A3 27 82 26 0D CF 70 86
 8B 69 BA D4 E9 98 01 6E B3 7B FF B4 77 13 20 AA
 BA 35 D5 8D BC 26 BB 53 DD 76 72 24 9E 89 66 38
 83 13 4B 75 76 D7 0A 28 E5 52 B0 F7 0E 62 1E 14
 4B EE 56 1D BE 56 BF 25 8C 1D 23 D4 26 1F 5B 22
 65 BB E7 FE 92 CE CB 7E 98 04 31 1F E1 DF 01 18
 AC AC 0D 22 CD 13 3F 33 1A AF 3A 76 54 77 49 0A
 A0 51 B3 13 49 1E 0B D6 BF D8 68 E3 F7 92 CC 93
 36 A7 AD CB C2 D0 5A B7 C5 7B CF A5 DF 68 28 EC
 28 DC 11 CF AA 2A 72 EB AC 26 8A C4 F1 7D 54 32
 CC 6D DE 01 2C 88 FC D2 23 E3 9B 86 AD B9 73 21
 AB 8C 45 37 14 98 62 4F 68 42 51 62 51 01 9E 42
 FD BD C1 2A 5C 8A F6 26 13 07 6E FD 04 F3 B8 6B
 7B A2 39 CE B5 FB 64 7B 46 C2 2C A5 4E BB 22 21
 71 8B 7B 10 8C D1 16 9F 05 B7 A5 F2 48 9A 0A D4
 85 8A 5B 00 0A 7E 1C 44 56 9F FA D4 C8 77 0E 2D
 3E BF EA 4F D2 9F 53 00 D5 B3 49 B2 DE 55 38 09
 DD 37 CD 5B D2 4B 5B 0E 64 63 0B D3 EF CE DE EA
 9E 48 86 79 9A F7 E7 60 E2 E2 B9 25 DD D0 E5 18
 BC 40 39 71 99 D0 C7 63 42 41 BA E9 80 8F B9 32
 94 41 B0 8E 12 D7 76 92 8D 07 50 A8 BE 30 8A DB
 95 19 61 0F 14 3D 12 40 8D 64 5C 69 46 AD A1 C0
 0F 49 61 BE DA 0E 50 9C A2 91 5D F5 31 21 85 60
 07 29 AB 08 DB A6 3D 6D B7 D3 37 E3 99 E5 F3 CA
 A5 32 28 15 25 4A AE 39 6B 19 DE 3E 9F 56 E4 E6
 0C 85 7B 8F 00 14 E5 75 0B 78 0F D8 A9 DA 89 E0
 97 FB 0E C2 D1 7C 42 B2 1F 85 74 E0 E3 24 46 D1
 37 89 2E B0 8A 8A 5A 41 1C 27 80 7F 53 35 82 49
 7E E9 3D FB 6C 45 D2 62 E0 44 B3 C4 9B 3D 7A 18
 90 A5 EC 34 9D CB 67 CB 82 57 54 D9 AF 5B C6 3F
 B6 8B DF A0 71 98 83 7E E9 A6 A2 41 06 03 ED B4
 E5 20 38 1F E3 09 D7 05 C4 D7 F9 8B CF 5D 80 03
 58 D5 EC D8 1C 61 6A 71 C2 2F 40 53 83 83 F8 B3
 F0 E6 D2 EA 35 2E D6 4B 47 A6 91 BC 29 07 44 E5
 63 04 46 64 9F 49 BA 0A A7 EB 7B 48 97 FD FC 32
 F7 A8 54 A1 C8 CF BF 3C 8C 82 89 13 0E 35 C0 BE
 27 0F EE EA 3C 70 03 E5 BF A7 C0 B2 14 D0 C9 DB
 D5 21 09 FE F9 FD 1A F3 A6 DA 5D 12 DA A9 91 FA
 87 47 D7 7E 49 F5 D3 4A 05 C0 08 AB DF ED 31 2E
 66 C5 55 55 9F EC 9A 2C 11 BD DE EA DC 0E FC 1F
 35 9F 81 97 D6 5D BB B2 33 DC 11 8A 09 81 69 33
 64 71 CD A2 86 B6 72 B7 A8 9F BC 68 3B CC 45 C5
 03 17 BC 40 33 74 3D 52 4C 3F 80 4D 5F EE DA 70
 CE 9A BB 61 0A 88 76 A0 E6 BA 0E BF CE 24 6A C6
 27 1C 97 06 30 CE F4 EF 42 C7 0F 58 E8 7C 1C 71
 49 56 BD 1E 99 FE AA FC 3E 19 85 C4 77 DF 14 47
 E2 79 D5 97 B3 94 7B 46 41 15 65 92 D6 D4 45 F9
 6B 0B F6 79 36 C4 E9 2A 13 23 95 6F 35 DD 00 5E
 9D 02 86 F8 89 77 30 01 EE C1 D9 AC FD 5E 1C 4D
 0F 87 6B 01 AD 1B F2 63 00 6E A9 4C F8 12 DC A3
 7F 2E F5 26 28 EC 3E D8 36 9E F4 02 20 27 D1 A2
 BE B2 EC A8 E3 BF 2B 57 A8 B4 01 8C BC 1E F4 03
 94 E3 83 02 87 44 BE 7D AF 90 3F 54 47 CF 10 D1
 96 E7 88 56 55 CF 8F 09 55 9D 5F 1A 7A E7 86 63
 6B C1 E3 04 9F 8D D3 1B FF 32 FE DD 5E 2C 0C D9
 CF 8A 52 1D 79 6A FA 8B 1C 25 13 23 9D 71 9B 16
 13 6E F2 34 81 FB F1 22 08 25 39 03 4B ED 12 64
 CC 8F 34 6C 47 AC C8 20 E5 94 29 26 72 3E FB 3D
 A3 4B D4 98 17 FA 10 30 EC 84 3B 58 92 DF FF E5
 46 CF 27 F8 8C 75 4D 1C C5 2E 32 39 94 15 2F A3
 BA 31 84 9C A7 9F 47 81 CF E1 ED 30 BF AA 66 2F
 90 F8 43 28 60 59 99 55 3A BA F2 17 AB E4 AE 2E
 38 D8 44 42 79 E6 D8 16 45 44 A4 18 7A 26 90 DE
 2F D1 14 7F B9 11 D9 B2 A4 F7 F9 C3 3B 02 36 B3
 5B 14 2F A0 2B 6C E7 BB 6D 56 6B CD 48 66 54 B5
 D7 3B 11 06 1A 03 29 F2 69 A6 00 34 FC 18 5A BD
 A9 FD 01 12 96 30 88 BA BA 19 9A 55 C4 07 9D 30
 58 A3 96 19 9B 5D 60 C2 8F BF 02 06 22 7F 66 09
 4B 16 B8 BE 2E F8 B4 29 A5 2B E4 45 B8 C5 D2 A2
 6E C9 FB 93 F4 50 7C D3 1B 6E 55 12 69 BC 89 3D
 71 C5 3E 00 48 72 99 C5 44 53 91 9A 13 00 7E 36
 1A FA E1 5F 41 8F AA 35 46 AC 7D 71 C8 B6 F9 9E
 E9 3F 94 93 1A 0E BA 4C 88 7D 44 97 EF 88 B5 B4
 1C DD 91 1A A6 35 42 3C 7C C9 73 BB 74 D4 BA 75
 33 1D CB 7D A6 2B F7 07 8B CD 16 96 95 DF 96 A5
 24 44 08 B9 C7 AE 0D 1B 46 F9 38 01 EB 80 B1 74
 B2 0A AD 6B 35 03 0C 35 7E FB D1 0D E8 E6 9B 48
 9A 51 2B D3 26 EA DC 03 2E AB 08 3A 5D 3E 6C 0E
 AF 6C 94 E9 31 B0 8F DD E3 D1 33 DC 21 00 1F 57
 B6 D4 35 90 45 D8 3F 26 03 79 2D A4 2C 2F DB 84
 EB C2 7C 60 01 5B 58 5F AF 73 3E B0 5D E1 29 1C
 40 EB D0 38 B7 00 6C D5 6D 76 4D 59 7A DA 14 0F
 86 EB A3 36 58 84 AF A7 30 74 73 D9 18 28 22 AF
 9A BD 37 B0 32 88 7D DB 52 76 D6 C9 8C 60 ED DF
 D2 3B 09 C3 73 1F 38 AC 55 0D 4C 9E F1 E9 9C 1E
 BD 57 D8 11 1D 2B 64 44 A7 C6 5A 1A 4E 14 6B EC
 D1 FB 25 00 BC 4A 0A F9 62 0A C2 CB E1 C1 FC 52
 91 79 92 22 83 FC 70 C6 02 7D 3E 06 20 75 C5 E7
 B5 4A 97 13 00 1A E8 7A 3D 7F D5 F5 03 78 FC CC
 89 47 AC B6 A7 3F 38 51 FA 32 2C 77 61 57 55 8E
 54 68 4A B1 60 56 41 D2 6D 22 74 2C 43 09 E5 61
 79 5A EB 9B A9 D2 DC 5E 74 19 F2 5A B8 1E 66 44
 56 BE 53 DD A9 8C C2 E2 F9 D5 97 31 7F 79 E7 A0
 AB 2C 9C 61 72 81 2C B6 52 29 A7 CD 1F 2B 40 BA
 40 60 47 50 77 18 15 5D F7 50 C9 D0 F9 FD 3A 42
 6C 74 24 C9 84 EF DE 41 CD 7C 7E E7 78 7A FB B6
 F8 A7 55 AB 4E C0 BB 6C 15 B2 A2 A7 5F FC F7 7E
 B5 B9 1B 08 FD CD 55 7E 33 AC 9F E8 9B 9C F1 BF
 A9 84 BB 9B 5A 5A 16 A9 DE EB 0B 86 A1 39 FF 47
 B6 93 7E 6F A3 3A 7E 44 C4 FD 54 D8 E2 50 63 D3
 C2 7A 7A 4E C1 CF 19 78 E8 41 0C 15 4A 0A 73 C4
 54 B4 41 31 53 13 F0 12 B3 FE 4B 3A 6D 16 16 6F
 3C E4 82 1A D0 A7 65 53 A5 85 3F 14 19 2C D9 C8
 9B BE 53 EC B0 1F 11 4B 7B 9E D6 20 DC A0 2F D7
 42 0C 02 1F 00 99 3D 3A F7 8A 9E BF 60 FE 82 8A
 79 75 02 70 5B 11 8A 8D AA BA EF 7E B8 91 C7 2E
 1B A4 2D 17 5D CA 1D 72 B8 BB B8 CF 74 55 66 4D
 8B D4 6E 00 38 96 69 65 31 51 84 7E 82 CA BC E0
 7B E5 BE 6F D6 B5 98 82 6F 34 A5 45 77 24 80 E9
 EC 15 CE 0A 82 5F 51 69 7B EE 03 CF 29 AD CD A9
 6A 45 78 7E 8C 94 62 B9 6D 11 8D 67 42 3D 62 DE
 88 58 90 15 C8 47 D7 9D 7F 2C AE 84 76 67 7C 2A
 AC 8F DC 57 5A 93 CA 81 E6 83 64 DC 19 B1 93 DD
 3E 2F EE 4C 39 A4 5E EB B3 41 39 83 58 15 6F DC
 42 5D 3A 56 89 D9 B5 57 F4 B9 E5 6F 75 6F 70 05
 2A 53 BC FB 70 24 98 41 EF 11 26 77 2C 3C 1C 15
 DE A4 11 A8 C5 E3 56 FB 8A 43 E2 C6 5A C4 F9 32
 6C DD 5D 83 49 D0 75 6D 46 56 60 80 29 E9 65 B3
 1E 9B E4 CA D9 37 3E 17 88 BF CE AC 8E 5D 84 DC
 06 6A 34 D1 BB 05 55 31 D7 39 B7 C9 A0 AA 5B B8
 94 72 B5 B4 64 8F 7F 45 73 69 A6 B1 B3 35 B6 00
 C3 8E 55 63 59 F8 E2 2F B6 C4 0D B0 83 0B 28 BB
 30 32 B8 AD A8 77 81 FC BC B1 DE C1 64 20 E1 F8
 DF 3A FA 53 6D AF 6C F7 E4 5B D0 6A 71 13 7C 29
 34 07 44 AF 18 D6 36 A7 CD 5B 49 EE A8 0A EB 6D
 7B 20 11 D8 E8 5F 51 E0 BE 94 48 05 5F 06 A5 C1
 17 40 AE 0B B5 7D 4A E6 12 A9 18 4C 4C 59 1F CF
 B3 D5 02 85 4E B7 66 08 55 A8 BE 27 11 EC 25 AC
 14 46 1E 09 A1 D1 6D D8 DD A9 CE 36 22 BC 66 3C
 97 18 37 10 D0 90 24 31 28 58 38 34 A0 9E 34 05
 21 D0 BF AC 83 EE 14 FB FD 13 1C FC 5E A4 E3 E0
 C4 B4 28 7B E9 44 8F 3E D0 F9 57 A4 B8 20 55 82
 7C 3E 47 B0 A1 99 BF 70 5B D9 34 56 B3 5E 98 E8
 DD 17 CD 65 D8 2B 92 0F 14 D1 FE B0 E2 5B 3E 2C
 49 88 D6 E1 FB D6 1A 2D A6 A3 02 E1 74 45 11 DE
 F2 90 82 A9 3F 55 A5 2E E2 6E 35 B7 09 AB 9D 96
 53 04 28 BB 55 80 A5 C9 1E A0 63 B2 FE 53 59 AA
 1D 63 E9 1F 16 40 B0 0B B3 4D 05 62 B4 BD ED 11
 E9 6E 36 F2 3F 62 53 0B F0 3E 56 48 A6 1A 78 5D
 00 2C A2 2F 9C 4C 94 D8 E0 5E 31 CF 15 FA BC A8
 8E 4D 5C BA 15 35 14 CC C3 B1 30 FD 54 2E 16 F6
 D7 E2 6F 23 AB CB EB 14 65 15 B8 9E 31 9A 1F 4A
 C4 BE EE A1 EB 2F 91 E4 9F 90 4C 7B F6 B1 AE 3A
 0F D9 36 57 EA EE 90 B3 D0 34 1F DD 78 04 69 0E
 7A 9E 76 0E CF DC E7 02 74 A3 85 60 42 C5 70 33
 17 51 79 DF 87 E5 19 9B 42 03 86 F6 38 D2 E6 B5
 91 A1 58 54 16 5A 87 03 B4 24 A7 78 75 40 26 91
 5F 13 16 13 51 31 87 67 9B 8E 0A F3 59 5E 13 1B
 6A EF D7 CA 7C 61 F3 FA 18 3D 35 AF 95 C8 CF C8
 A2 FF 1E 87 AC 1B 4A 7E C1 3D C1 07 FC 03 F5 C9
 CD BB 75 9A 9B 3D C4 75 AD 8A DE BF F6 59 2C 18
 42 70 00 F0 71 46 AF 06 AB A9 CA 7C EF D2 5B 21
 A8 8B 60 2A 62 9B A6 04 32 12 F9 A2 68 90 0A 8E
 B4 7D FC 82 BE 2B B7 10 61 04 F8 9C 83 DB 56 7A
 AE 86 4D A9 07 76 42 06 F6 43 9D 03 5E E7 89 A3
 89 C8 EB B5 FD F1 A4 86 4A 41 00 CF D4 B3 43 33
 AD 12 6B 7F 8B CD 44 AC 25 80 1F F3 53 AC 12 DB
 58 05 4F 39 E5 CF F2 E4 2A 36 9F FB FD 38 AE BA
 D1 D4 EA B4 8C 94 F4 49 B0 9E A7 2F F9 55 B1 F0
 E2 40 BA DB C3 A2 B5 0D CE 21 9F 06 A9 AB 74 32
 39 EE B0 B0 F9 F9 56 EF 52 89 78 BA 5D 8B 3F 35
 C7 D0 6B 81 CB 9F A8 4F 85 BB 14 CD 3A C7 D6 8C
 65 92 90 D3 7E 3B 93 36 04 92 3B F8 11 70 3A 12
 2F E9 16 90 A2 B5 AE 5B DA A9 30 21 8B 18 0A E3
 78 80 20 7F A1 CA 17 7D 7D 81 9A 36 63 E6 57 A4
 93 85 25 C6 B8 EA 44 F2 FE 33 23 12 F3 B8 A5 83
 55 52 A2 71 16 7B E5 6A 01 8C DD 66 A3 33 DB 3D
 E3 AF CE 6C 39 89 A1 6F 63 F4 7C 6A 55 D1 3B 5D
 1B 2D 0B 26 C1 BB 88 D2 43 EB 26 9A 59 87 B9 48
 3A C2 28 2A 47 E9 46 84 FC C3 75 97 03 90 93 56
 50 0C 06 F1 10 52 B1 7B 2F EB 8A 28 76 16 6B 42
 0B 57 59 62 E1 30 38 A8 A0 21 F1 F9 07 BB 7E 9D
 E4 44 B5 42 84 4C 93 6C C6 40 CB 04 5B A2 8B 47
 E3 3C AC 84 1B 3B 1F 57 9F 10 98 CC 18 BE F3 77
 E9 98 A4 52 CA 84 D6 95 4B AC 3B B2 B3 5A 4B A0
 A3 D7 29 C1 DA 5D 3A 5D 57 66 F3 C9 FA 13 AA BA
 5D 04 C5 4E 30 A1 D9 52 47 D9 3B F5 E3 5F 4F FF
 5F A7 F1 69 FB 36 68 4B AE F8 D9 C0 5A 14 71 09
 01 86 72 CC 85 DA 5D BF 37 91 75 5A 91 23 75 7A
 63 ED BD 01 A8 59 23 DA 6F B4 83 B8 85 71 68 FF
 A6 CF 67 CE F2 56 26 EF 50 5F 68 7E CC BC 73 25
 9B 5C 5C FE 2F 63 12 9A 69 AE DF 4F 67 7E 47 F6
 3D 06 1D 8D 2A 21 7F 82 DA D8 B2 5C 33 3D C1 A2
 BB 93 40 B5 06 44 32 B9 86 DA 3B 6A 62 8A 70 19
 7A 15 91 56 73 16 CB 31 35 60 84 2D 73 88 4C A0
 9A 3A 15 EF 2B D3 41 51 A1 72 EB 54 A6 66 31 19
 68 22 89 4F 9A D3 04 A6 30 93 97 BE D5 9C 18 E8
 40 06 38 47 2E 5B BB 5F CA 14 D8 0C 30 C8 87 23
 AF 89 DC 61 11 73 60 A4 F3 98 4E 4C A3 CE DB C5
 CA 48 10 EE 74 FD 2A C4 8D 4C D1 30 18 0E 9A 29
 6B 71 3D EC 06 35 B2 EC 20 38 B1 19 E6 17 1D 7B
 49 5C 32 EC 9C 83 39 B1 4A AC F4 5B 1D 87 83 16
 1E 7D 34 3F 22 C9 39 0A 95 A2 86 6C 1A 71 7D 4D
 73 7A B8 05 46 A2 B5 36 27 BC 39 14 8D BB EB 51
 85 31 2C F7 77 D0 A1 CA CD 5E 08 03 9F F1 35 F2
 73 07 83 53 66 2B 27 F7 36 0C 53 A3 95 75 B6 9D
 25 15 58 A8 24 BB 39 B9 35 C0 CC A0 BE 0D CA E3
 5D E2 F0 13 FB EC F3 EC 0B 76 93 16 63 04 44 7D
 D2 CC 37 8C 7F 7E 78 B1 ED C9 E2 86 99 D1 82 8C
 E4 F9 5C B9 7E 64 0F C0 B3 7A A0 9F A8 F9 5F A1
 B1 A7 DD CE F4 A9 DF 8E 4F 39 1E 11 A3 89 E0 00
 16 96 07 CA 15 81 FB FD 56 CF 13 82 23 31 77 B7
 4A 3A 2F 3D F2 F7 91 51 DB E0 45 B9 FB AF 3B 08
 E3 27 45 DE 31 7D E1 C2 2D BD 41 5C 4C 33 DD 90
 78 17 EB 96 AC 61 89 6F 99 AB 22 E8 7C A4 78 F2
 81 1D A9 FF 9B 7F E3 00 46 E6 3A 85 B9 F7 C3 C8
 8B 86 A8 33 5B 64 7C E5 49 CD DD E5 BE 77 29 69
 BE 88 4C 0F A5 BF 95 F8 B1 0D FE BB FF 8C 3C 0B
 D9 D8 1B 3B A1 3D 71 20 7B E7 12 3E 01 61 7F 45
 E2 8F 9B 06 36 FF 74 BC 68 37 23 FC 17 1F 1F 43
 29 F5 B9 7D B9 A7 B8 89 E7 05 13 58 2A F9 DA 07
 E4 1D DC 11 D6 FE 11 F8 C4 64 1C 06 28 57 DA B1
 0E DA 1F FB 1D 80 58 55 99 D4 5E 7C BB 08 AB 51
 AB C9 AC 37 B3 CF 82 72 FD C5 32 E3 41 0B 17 FD
 4B 00 B3 6A 25 E5 6E 3D D7 CE 35 44 D3 5D FF 4E
 57 87 30 85 24 47 B0 DD 89 69 5F F6 37 75 1D 80
 EA DA 2B C5 1A E8 25 4E 77 E2 0E D7 F3 66 DB 44
 7A 6D 8C 0F 0F A7 51 CE 6B 59 39 E6 FC B9 1B 4E
 BA C1 AB E9 D8 E2 C4 7C 55 AD F5 2F C3 77 0E 67
 1D 92 75 44 B3 75 E2 6E E9 F6 F9 F2 85 6C A5 92
 C0 C0 E9 87 97 A0 60 DD 9C 74 4F E3 63 63 14 1F
 88 9A DD 86 DB 60 1C E1 15 15 9E E6 F7 8F 04 9F
 37 56 37 F3 CE D6 36 04 5F 98 FE 8B 3A EC 77 7A
 89 E8 EA FF 90 CC 48 7C A1 67 A2 6B 03 AD 3C CD
 9A 0C B4 CD C9 F1 1E F1 4E 53 D4 29 2D 5F 59 5C
 A3 D4 E8 04 F5 FB 64 4B DC 2E 1D 89 14 BD D8 66
 E9 2D AB 12 75 F2 4E 53 1B EB 22 FA 2B 9F F1 8E
 25 C0 A4 16 0F 8C 61 0F 2E 16 D4 93 62 3E 3B E3
 CB 73 6D D6 AD B2 54 C4 54 7A 44 E4 F8 64 40 AF
 3D E5 09 F4 2D 3B 99 9B 95 13 ED E6 E4 8B 75 D2
 2D F4 C1 A8 CC ED EC AB 6C FF 9D 1B E0 DC 9B AF
 72 83 52 82 E7 CD D2 90 98 6C A9 0D CC 42 CC B1
 AF 42 98 36 C5 AE 4E 5B 52 F3 BE C9 2A 4C C9 82
 95 EF 13 2A 60 C8 27 F6 A0 1B 1D EA 35 3A 37 78
 16 BE EA B4 00 64 C3 8C 7E BA D8 59 77 09 0D 7D
 CA 45 08 1D CE 46 FC E6 33 35 C5 A4 61 B5 84 AB
 B6 A5 D0 0B 79 B0 24 C8 9E 7B 23 71 1D 19 6E B6
 93 CE 94 42 23 2F A1 EF 5A 37 85 AE 92 41 CA 9D
 72 4B 83 65 F9 B6 40 84 ED 54 48 B7 1A 4F BE 7C
 CC E0 A9 03 23 2F 8B D1 83 7F 42 B8 A6 DA 20 12
 C0 C5 47 2F 97 F3 47 39 30 B6 89 BE 1B 18 39 D1
 E6 61 04 85 44 FB 97 8D 29 30 8C AB 0E 90 8E 5A
 F1 EC B0 4F 61 9B 6F C1 08 D9 79 D1 77 EF 28 98
 3C 48 B7 B2 75 F9 6B 6E FE D6 39 E4 49 14 21 36
 45 EA B7 B7 44 48 AC 73 10 5D C9 16 DF 92 06 86
 B4 E4 77 B7 AD 20 E4 40 80 B2 64 0C 1D 3F 69 D8
 7F 71 C9 9D C3 98 A4 8A 1E 86 EA 24 DA 41 C2 42
 13 6F 9E 4B 96 53 3B 31 66 79 33 79 4C E6 64 F9
 8C 54 7B 6E 44 6A 26 81 D5 1E 71 F9 E6 E0 8E 0C
 3C 24 EF A8 3F 74 44 61 80 E4 02 B2 C9 04 83 0E
 2F C2 D1 2E 01 30 8D E1 2E E8 BB AD 66 84 3A 52
 13 B1 B7 1E 06 6D C7 F3 70 8E 22 AC F1 6E 7F FB
 71 B2 4C FC 8D 23 EC E8 73 11 D4 68 55 26 62 D0
 17 ED 2F 39 14 2A 16 9E 4A 1F 54 CD 39 5A 46 4A
 69 FC 40 F4 36 DB 0B C0 D5 6E B9 D3 F1 E8 35 88
 30 A7 EA 0F 87 CD B7 29 1C 51 A8 9E C5 3A 16 66
 3F AB 07 34 2C 4E 9F 70 7B BD 50 BA 01 D3 82 75
 D2 E9 97 0F B0 1D 8E 99 C5 A9 29 64 01 CE 00 78
 37 B7 03 17 77 8A E9 BB C4 B1 06 D7 E9 7C 1F FA
 4A 20 BC F9 E4 A8 43 16 93 65 AE AC 18 14 D5 B9
 6A 95 D9 E4 06 7C B7 E6 11 C0 94 07 2A 63 30 02
 5C 04 65 48 4A 5D 4B 75 78 50 CF 3B AE 78 A8 0E
 D6 26 4C 99 1C 79 B2 94 E5 CE 89 5E 99 F4 38 60
 7E 11 EE D0 EF 4E 42 07 CE EC 0F 2A 09 5E D6 82
 19 B5 2B 3F BB 5D 29 77 A3 25 07 E2 CC C2 58 C9
 3B 56 AB 67 76 36 66 00 E8 A0 67 E2 A7 57 38 FB
 BB E2 E9 38 AE 28 CE E2 10 89 98 AD E0 2D 50 71
 46 33 24 EA 21 E6 58 CD D3 21 37 21 81 37 FF 2E
 57 55 BC D7 45 77 44 F6 09 DC 54 D6 21 25 C1 E9
 2E AE 3C B7 E0 01 E2 9D 47 06 55 FA 96 E4 25 8B
 95 9A 6B 2D E5 70 80 B6 11 96 A9 C0 0B 2B D9 95
 36 43 C5 98 5A 24 DC E4 54 EF 5F 6D 33 60 DD 59
 3A 9A 72 28 62 D1 05 D5 51 E9 07 78 73 79 D9 82
 F0 AC C9 7A 8A ED 1A B7 91 A8 C4 B7 97 68 64 0A
 5E F7 C0 F6 C5 A9 F7 F0 08 F8 39 6A 0F AF 41 B2
 33 9F 86 93 ED B3 D5 06 04 43 C1 26 D9 FB 90 5A
 4B E2 97 7C CF 82 39 7E 72 A1 F3 FA B2 4A BD C2
 EC 52 5B 8E AE E1 50 7A 23 16 4A 40 0E A0 AC A6
 B3 45 6E 3F 31 EE 83 AF 01 B7 67 34 1E 0A CA B3
 BA 28 2D 57 77 A6 91 33 BE 37 54 0F 61 65 3F 36
 F9 E2 79 7A 92 34 62 6C 4F E4 04 BA 45 60 27 51
 5B 12 4C EE 56 65 4A 1F A5 C9 D1 0E C8 33 6C 8B
 3E 5D 4A F3 F3 E8 62 18 B2 D0 D2 2E CA 1C C7 8E
 F6 5B DD 9D A5 4F B6 2D 55 8C 2B A7 A6 AF 9E 53
 07 A5 79 4E E5 78 7C 0D 2F 50 F5 A1 D7 DE CB 5A
 BF BE 1F 01 AF 91 60 B4 01 64 8F E4 D8 BF 55 AA
 F5 1E 03 5E 47 B3 81 18 8E FC 83 7D EE 49 A8 76
 65 3A F0 6C 18 58 EE 6A 4C 44 70 5C 88 D8 4A 12
 98 86 22 30 4D A9 2D E4 F9 C9 0D A6 C1 E9 7D 17
 0F B2 DF 57 AD 91 B1 C5 86 B6 BD 2F 9D CC 42 78
 C3 D6 74 5D 95 30 8D 13 0F 9A 97 E7 18 97 32 E9
 90 7D AF 5A D6 8F 9F 37 4B 4A 11 D2 5A DC 39 90
 51 2E 13 D4 95 D9 2F 1F 92 67 CD C2 95 FE ED 0F
 11 44 1D E0 26 37 84 7C 12 01 EF 54 12 7D 46 5B
 B6 E0 32 5B 94 D6 FE 5A 72 87 84 EB 84 B5 78 C4
 A2 3D 07 AE 7F 1C AB 62 58 14 97 F2 7D BE F9 DD
 95 25 FC 4E 32 74 43 EA FB 04 55 6E 9A 83 C6 C7
 B0 18 CA 85 DB BD 8C 9A A4 D0 98 C6 22 CE 83 4A
 3D 1F 57 8E B9 A2 E6 12 78 E7 AD 14 AA 04 59 56
 C3 16 F6 7C 48 BC 48 10 65 6A 5A 01 71 A2 58 36
 E1 C7 81 CE E8 78 D1 AC 6F 9D DD 20 0E 6E AD 31
 01 59 76 AB 68 61 23 AA EF 77 A4 69 09 8D 4F 83
 E2 51 A4 83 BB 9C D1 6F 5D 42 E4 5F BD 23 62 A6
 C5 B0 22 21 7A 82 D0 8F 84 E4 C8 08 3E 09 0D 4F
 96 E3 FF E4 6A 13 A1 7B AF 9F 41 5B 6B 2E 86 89
 54 40 79 69 35 44 17 5A 89 DD 62 C7 8F B3 18 A9
 5C 80 19 A4 50 35 5B A9 62 2F 3F 50 BC 25 00 23
 95 F5 03 27 82 A5 BD 9B B4 50 AA FB 30 88 AC B0
 2C 06 C2 D8 7E D0 1C 55 74 8D 5D AA 18 73 4A 9F
 69 81 38 47 DC 5D DF 6D EB 98 35 C6 60 1C CA 08
 E7 D4 7C DD F6 6B 0C 60 9D D9 5B 27 A3 5B A6 66
 1A 76 02 8D 8C 1F 22 15 D9 8E DE 51 B3 8B E2 12
 CB B3 9D 08 FC 13 BC DB 52 D6 5E C0 52 CA BE E4
 D6 01 0C E7 AC D1 22 0E 61 51 5B C0 B9 D8 5B A5
 59 0A C3 A2 44 97 28 DC DC 5D 34 DE 23 6E 8F 0D
 AA AE 5B 81 16 E0 80 0C F0 D7 4F 3C 2D 23 A1 17
 6C 09 72 E0 DD FA 91 C2 C1 AA 6C D1 85 E1 0C 0F
 35 63 8D 21 47 EA 23 62 BD C2 CD BB B9 6C 07 39
 48 73 94 1D C3 5D B7 EC 3B 57 7D 7A 0B 1F 6D A2
 8F A3 5A 75 B8 13 23 69 B2 68 37 91 9A BB 84 2C
 B1 8F 2A 92 E8 E9 7F 52 80 7A 8E 93 5C 3A F9 0B
 32 9A 59 69 C3 A2 80 6B A3 8A 77 43 A8 33 37 E1
 B5 D1 D2 54 A1 01 2E 14 33 84 B3 8C B1 9D BB 8D
 B9 84 C7 64 19 C5 62 83 BF 79 66 5C C7 D5 85 93
 D4 E3 8A 39 AF 8C 88 9F 9D 21 0F 6E A9 03 FD 60
 B7 32 B3 4F 6B BE F7 0C 09 E2 8A E6 15 44 9A 02
 0E DB 7E D6 FB 98 F3 6D CC A1 0F 3D 73 28 B9 FB
 27 D3 D7 A0 A0 6B D2 37 08 A5 BC 19 F8 6C 8C 2F
 6B B7 9D 80 FF 6E A5 5B 26 F4 75 7A 7F B5 27 F4
 1A 04 AC 47 3A 89 FB 60 1D C6 EC D8 77 65 36 17
 D0 28 34 34 B0 5F 03 58 58 20 C0 60 E8 F9 7E E2
 87 D3 EF D7 04 DF 47 12 28 07 4A 9A 3A BA DA 0F
 7F 16 0A DE 1D 31 4F 48 93 3A 19 5E 76 B4 C1 4A
 02 20 64 D3 91 A3 F4 15 3E 43 B4 CA 72 E0 51 55
 45 A6 EE AE 26 19 A2 B4 74 C8 FA 12 47 51 F2 14
 25 0D E5 8C 10 6F BF 18 6C E4 12 7D C6 E7 BF 15
 CC A2 96 C6 B1 56 5C 49 92 DA AE DB C8 4D EE E3
 F3 56 D5 73 C0 6F 56 A6 17 8E 43 06 77 5E 40 04
 F5 27 C9 F3 1E 6B 87 CC 04 FF 18 B5 B5 C4 13 67
 B5 63 BF 7D A4 CF 92 C9 1C A1 E0 62 91 6E 1E D8
 38 6A 34 B0 EB 66 83 84 22 88 44 2C F3 2E 43 4E
 50 2C CC D0 F9 F2 08 5B A3 B3 3B 53 A5 17 9E C1
 C0 76 B9 51 D6 F5 78 21 61 69 8A F4 43 70 F2 47
 83 31 1E DE 8B 6D B4 A4 46 47 89 74 23 26 D6 75
 AE C3 43 95 E6 0B F3 23 1C 59 1C A5 6B C9 DE 71
 52 2B 0F 11 5D 7E 48 8B 4B 09 5A 57 BD 72 11 27
 DF 71 0C B6 6B 95 0F 4A 6B 2A E3 CE C0 61 F2 0B
 24 C5 12 55 29 66 A4 5C 66 2B 6B AF A2 62 E0 EC
 3A AB 6F 56 EC 23 56 1E DB 0C 4F 15 AE D9 A4 31
 69 FA 95 F3 13 F9 98 06 29 E5 ED 1B D0 CF AE BD
 D1 EF 41 C3 E5 16 22 04 29 47 B1 8D 53 37 B6 D9
 24 78 79 93 E5 8D 5D 49 A6 A7 B0 EC B6 08 12 38
 89 B3 69 D1 9C FA BE AD 0D 2B F2 17 AF FA 46 7B
 D5 A0 61 B9 E3 C6 A8 B0 72 2D 91 87 A6 A5 CC 1B
 A8 61 84 AB C7 6F 34 2A 0E 87 EF 9E 00 31 E6 FB
 5B F2 DC 40 BC 8A CF 6D 82 47 06 BE 4C 6C AE EA
 F7 25 86 A3 85 96 41 D0 0B F6 E9 4C 71 9C 05 DD
 0E DE 08 49 DD 6A CC 49 AD 8E 48 15 06 CE AE 1F
 70 7D EA B8 CB 31 C7 23 CB 58 5E FF 18 83 B9 3F
 EC FD 4E 9C 55 C7 87 6B 1F 88 6F 4B 65 41 70 9C
* End 167016238 1547838858