* LTspice Encrypted File
* 
* This encrypted file has been supplied by a 3rd
* party vendor that does not wish to publicize
* the technology used to implement this library.
* 
* Permission is granted to use this file for
* simulations but not to reverse engineer its
* contents.
* 
* Begin:
 AE B8 8C 35 9B 94 5B F2 DB 4E B7 19 04 AD 81 CC
 5F 9D 4B 73 43 4E 54 09 FF 5A D1 4F 24 49 5A 11
 6B AF 2B 75 7E E9 E0 02 7F 55 25 13 28 8C 52 A4
 FC 45 AD DB C6 5D B6 67 1D 0C 3B FC C6 D9 9D F1
 03 60 A7 4E 58 2B D7 4A E1 3A A3 FB DD 04 2E 3B
 02 39 3D 04 DA 78 AD F3 E0 02 64 11 F5 83 F9 4C
 40 95 8F F5 28 4C F8 99 8D 3C CF 3A 15 9D 40 80
 37 81 5B 0D 43 EF 7C 84 FF 46 CC B6 83 F7 A8 03
 22 20 AA 01 44 19 E3 C4 3C EA D3 A8 A7 C2 D2 D3
 7D F9 99 53 01 1A 58 E3 FE 75 A1 27 78 95 70 C2
 26 5B 39 62 D7 1E AE 68 0B 98 88 FC A1 54 03 71
 AD 3F CA ED AC 72 48 61 56 68 68 96 00 6B 39 00
 A8 BA 64 24 8A 01 14 87 5A 2E 61 D7 79 E2 1C C4
 3F C9 B3 71 1F 4A 86 64 90 8B 9E 4B 38 23 BD 1D
 1C 9D 3A 58 63 11 F4 79 35 47 DC DA 3F 0B 65 78
 FA A7 15 2C B0 15 1B 8D 70 60 50 AF 05 53 58 42
 E1 A5 54 F3 B5 54 56 BA 96 95 B8 BB 99 B6 67 40
 72 D4 4D FF 42 F0 6D 47 D6 5E 61 BD 91 AC C4 3E
 B2 52 84 31 79 6C B4 D2 7F 90 80 FC CC 89 38 1F
 CC 92 AB 00 8E 72 07 EB BC B6 1E 43 2B 9A 59 86
 DC 35 60 76 6C E1 16 D0 6A 24 AE 02 B7 E4 4D 9D
 F9 7D C0 80 FF 78 94 F9 85 63 51 8F E5 C1 7A 06
 9A 90 E2 51 64 52 66 0B 68 FA B7 E1 25 AE 50 5E
 B1 EE 71 0F 8F 21 A6 0A 26 91 88 8F 59 A0 A2 13
 09 68 2C 38 E2 A5 74 62 67 01 49 2C 65 E0 CA 8D
 F7 AA A9 FF 3A 15 D8 4B CA 13 5C 42 15 10 57 BB
 9D 72 2A 8F 3A 55 F0 B8 05 14 66 46 EC 96 F9 26
 3C 9E 0E 7A 93 AE E0 DC 18 06 97 53 85 FD 7C 2C
 88 46 2C 2D 4E AA CA 2D 9D 55 C9 14 7C BD 2E F9
 BC 84 6E 4F 6A DB 8F 62 84 B5 B1 BE 32 95 C7 61
 99 6F 0D 55 C5 CD 12 74 4E 80 1A 2B CC FE DC 8D
 D0 87 8F 49 18 FA 53 7A BB 05 F8 E6 DD B8 3B 2F
 FE CA 37 D5 38 68 6B 54 57 88 B1 95 FD 72 0F 9F
 E9 D7 61 13 86 F6 20 3B 0C 93 D4 9D D7 15 B4 BA
 2D 3B 35 A1 ED F8 62 9A 06 87 C4 5F D9 4B AC 74
 41 B4 01 26 29 3B BC 8A 33 07 D2 22 52 0D E8 DD
 4B 1C D5 83 DD 02 6C C5 47 23 B2 C3 EB F1 78 41
 6D 2D 6D 0F 9B 76 8B BB A0 E3 B7 3C C2 EC 99 E3
 28 42 B7 E6 96 0C 5A 47 0F AF BA D5 29 AF CA EA
 8C C8 FC 46 13 9B 16 73 F2 9D F4 B0 77 79 74 B0
 33 4D 64 D1 42 FE 94 DE 80 08 A3 BC F5 44 04 67
 12 E5 E3 00 E5 85 38 C5 28 D2 C5 AE D6 F1 2A DD
 CF B9 F3 3A C1 51 E1 B3 12 F8 D1 98 9A B1 9D 7F
 45 2D 0D 93 6A 2E 1D 50 69 FE 6D 4E 62 92 51 29
 B0 22 B9 BA E5 2A 54 4F C4 EA E2 F2 60 0B 66 7B
 96 D8 B0 53 E0 BC 5F 68 6B 68 18 EA DA 63 BD 4B
 A9 B5 4C 33 16 A7 EA 43 00 8D 48 07 B8 F9 28 99
 02 D6 5B 1C A6 BE 24 7B 1D E8 38 E3 10 BF 9F BC
 84 B6 10 BC 05 57 8D 05 20 F5 D6 17 4F AF 9D DA
 C6 93 F6 21 09 21 24 C2 83 63 74 8B D4 B6 26 6A
 F9 AF 90 14 51 D1 B9 7B 49 77 6B 94 32 C7 A9 CF
 92 3A DB 4F 23 72 D9 1F 59 65 56 1B 43 56 5C 4D
 46 BF F1 FF 15 64 42 7D 4E 09 F0 5D C4 59 81 30
 C8 0B 94 2C 8A 3F CE 95 3A 87 5A 85 26 6C 69 42
 08 68 FD 99 9D 17 47 F1 C5 B6 46 2C EB 65 1A BD
 7C 64 AA 4B D3 46 55 6F C5 E9 A2 EC 5A 5D DB 9B
 88 D7 41 64 83 E6 81 4F 65 45 2B 67 13 EC 69 C3
 3F BF 74 9F 17 E5 C0 E6 39 F1 40 92 E0 EE 8C A5
 49 AB F6 8C 93 0A 2A 95 E5 4A 7B E1 B6 0A E5 8F
 A7 2B 97 20 FA FF 95 DA 89 D0 15 5A A1 0E 13 76
 F6 F6 33 72 C8 8F B4 C7 A0 81 80 39 C1 CC 8B F6
 64 82 D7 C9 78 EF DF 9E 44 6D 02 42 B1 D2 86 83
 A2 22 8C 61 6A CB 29 74 C3 42 65 AF 7C 20 1C AB
 D8 C7 5C E3 38 E7 B6 0F AD F3 2C F1 51 4A BD 52
 6F 86 D0 BB E3 03 D7 7D 4A 85 93 B0 06 D0 E9 7A
 A7 4B E4 9D 72 10 04 E5 41 3F D5 5F E7 FE CC 91
 48 CD 47 F0 D2 2B 83 1D 1D 15 5B 87 60 A1 9F F0
 C9 36 E6 F5 C6 B3 E7 FA 40 76 78 21 F0 D2 16 CD
 04 63 E6 80 89 7E 00 06 F5 EC B8 76 B9 AC 69 41
 EA D4 CA 01 B2 1A 39 4C D9 B7 52 3C 1D 11 EF D3
 76 48 62 F6 D7 CC 4D 0E 51 FE E6 82 BF CF 26 3E
 BA C6 CA E2 1B 87 DE 81 3D C2 34 56 F4 C7 86 CB
 49 07 F3 29 07 DF A1 B2 A1 46 0C AE 82 4D 54 FB
 BD 1D 86 D4 91 93 E2 70 D1 2C 0C D9 CD 4B D1 F7
 A2 FB 0D F4 73 64 1A D0 17 C3 9C D1 17 EE 62 8C
 85 BE ED A0 62 50 67 97 B8 B6 E2 47 99 E8 A6 A6
 F0 27 8B 0E 68 4C FB 4F E0 FD D8 AC F6 7B BB E5
 2A 1F 4D A2 AC 63 AF F8 AC 47 9E A4 4E E5 54 EA
 CB BD B4 C7 30 8A 4B B4 21 B7 6F 5D 19 22 3B 72
 16 ED 36 AC C9 2B C7 3A C5 8C 90 4A 15 3D 72 DC
 27 22 69 36 E5 87 46 CA 19 96 FE 32 18 41 B9 AB
 28 6E 49 C7 75 15 02 D1 EF 8D 3C B4 2E 05 60 0C
 B6 02 DD 80 23 96 E8 B9 53 D5 D6 17 71 88 0E 0C
 50 22 2A 79 CB 17 DD ED D2 F7 75 60 93 96 76 5B
 14 6B EC 89 7F F5 04 18 87 FD DE B8 08 49 96 90
 EB E8 0F 93 C2 C5 F2 16 9F 31 A0 76 D0 92 E1 56
 B1 D2 78 DD 27 74 0D 83 8D 61 AB 62 DA 6D 44 B3
 8B 52 FC DC A2 17 4A 1C 5B B7 48 0E 02 E8 3C 4A
 B9 F7 EB BE 76 EC 34 81 FE D6 BF 5B 4E CA E0 54
 81 12 B9 16 DF 9C DB 21 05 86 EE 30 0D 26 87 70
 00 72 06 3D 12 01 52 9D 1A 4E E5 54 DF DB 8E 6D
 56 A9 60 0D C2 49 EE 0B 99 23 E2 C8 9C 9C 63 30
 9D B2 6B 02 FF E8 6D 7D F5 3B 00 7E D2 95 64 9A
 25 9F B5 3F 4F CB 2B B0 AC 2B 63 C6 B5 91 B1 A3
 DE 15 6F 7A 05 D7 9F 0D F7 A4 C2 80 31 53 55 14
 2E D7 A7 30 A6 26 F6 F7 1B 7A E4 73 B4 CE 93 20
 88 1E 09 85 7E 1F A5 19 14 3F 81 03 48 AA FD CB
 31 F9 A9 43 F9 AE 29 F7 F9 D0 5F 59 E7 5C B2 C4
 F6 E1 49 CB 20 E9 B1 ED AA B8 99 5F B1 C9 0D E2
 C3 30 2D 16 21 1D DF DE 7C 4F E3 24 8F BE 61 26
 67 A6 63 DB 46 F2 75 CA 62 42 71 3E FB 11 7B 9F
 F0 5B 5F D7 3D BD 57 43 F0 05 E4 EA F6 9D F8 DE
 67 BA 15 24 E1 A9 EB 38 A3 1E 64 E7 5A 4A 31 2A
 44 96 9D 67 F9 1C 00 9B AF 77 70 A4 D7 52 B6 11
 94 E4 8B F7 F9 D6 51 27 5E B6 86 A7 58 74 DB 58
 BB 9A 7D 6A 1E D3 C1 55 7A 90 C0 10 BA BB 48 65
 49 29 74 41 55 39 C5 16 9F 8D 13 54 4B 49 9D C1
 A6 49 A4 9A 9A 67 08 84 51 2C 72 18 81 60 D0 E8
 06 92 26 1F 61 68 FE B7 A2 BB C9 8F E9 C1 AB 17
 AE 1F 09 45 10 C5 87 9F C4 FE 2F EA 7F 73 A9 A2
 A3 CB 23 05 62 4A 08 F7 40 5C 16 70 DF A4 43 64
 D7 9E 57 1C 3A 8B 78 88 9D C9 45 56 98 9A EC 92
 CA 30 06 4A B8 E0 A0 B9 5D 2A 74 BC B9 F9 5F 1F
 7A 98 44 A5 FC A6 25 57 1E A3 39 CE 4B 2B 26 93
 CB 57 CE 8E 80 4F F1 35 E4 54 4B 0E 15 9D 3B 7F
 6A CC 1E E5 92 55 58 EE DC 63 11 33 7F 7F 07 F0
 D1 EF 71 3D FD 96 E8 7C C0 0B CC A9 F1 3E BB AE
 F4 BA 9F 5D 77 0F E8 F6 61 D4 21 EE 8A 40 D0 AB
 C9 67 1D B6 6C 54 9B F0 67 5C BC 03 E8 3C F1 0A
 90 B9 AD 7E 73 43 31 AE C8 C5 D0 3A 5A 95 5F 77
 4D 9E AD 0C 8C 6B 17 0C 11 C3 D7 FD 2E 03 41 77
 6D 02 05 0B F6 68 EA 7D 65 A5 53 85 23 0A 6A 01
 2D 35 97 7C 31 BE 57 64 71 10 20 58 BF DB 8D 8B
 3D 16 2C 90 54 69 13 D0 BC 4E 7E 8A C4 D6 09 2F
 4D 68 B7 BF BC FA A1 F8 3F D1 B8 08 56 A3 D4 08
 54 D9 92 B5 72 68 91 2B 2A 6E 23 AE 18 C2 42 B5
 26 2D D0 24 11 9A 2A 34 61 E9 19 79 D1 74 83 E4
 DE F9 4C 35 01 71 7D F6 D7 46 D0 56 8D E5 E9 CE
 81 0B DE 9D FE 2D 2F DD A4 34 6F A9 C1 46 53 25
 53 F6 2C 40 F2 B1 43 C2 4C 62 21 09 BE CC 02 69
 8C 90 E7 F0 86 03 BA 5D DE 4F FC A8 57 27 8D D9
 54 E3 3C 6A 13 41 98 10 4B D7 37 F7 B2 0A 97 D0
 58 75 F2 C8 ED 66 A5 6A 40 E9 C0 8D 08 F2 8E 16
 A3 2E 29 2A DC D2 01 E4 8B 28 4E 86 43 EA EC CC
 4C C8 B5 BD 39 BA 87 F9 E1 3F 0B 51 9E 85 C9 28
 B7 C9 06 A7 66 BB B7 26 A0 C3 0A 5C F6 41 B7 05
 8F 9F 5D 60 CC 55 AC 12 28 3E 4B 6E 4A C2 E6 33
 B6 D0 52 B9 C7 E4 19 41 07 30 20 ED 85 06 54 6C
 57 FE 85 67 7F 64 45 BD 4E 8D 66 69 46 0A 23 34
 72 59 D2 29 FE 75 1D FB E9 29 7D 1E 74 A2 CF 9B
 F5 92 A4 49 6A 4B D6 35 BF 01 E6 99 3F D9 D4 75
 4A 3F 95 72 21 A8 C4 6F 57 FB 03 9B E5 E7 7F 1A
 EB E1 A8 16 53 30 2D D7 20 17 B2 1D BD BE ED 81
 A8 87 AE CD 8B 1A 99 2B 53 40 0F 41 F0 D4 86 8E
 BA 95 CE 73 BD D0 F6 14 50 1D A1 FE 37 2F 0A 13
 FF 30 40 B8 86 48 19 7B BD 7C AC 28 C6 24 63 C5
 E3 AA 2E F0 1F F8 BC 43 64 06 91 7C 7B 2E 0F A1
 47 28 7B 7C C1 B6 84 80 E0 0C 0F 5C 1F E1 1F AC
 60 95 02 8D 05 C7 85 0D 4F 7E 0C 61 D8 40 82 6E
 4E 81 C4 79 5C A6 AB 98 6C 1D 37 78 2D 00 E4 31
 49 35 4D EC DA BC D8 7A 6F F4 01 D0 CD CA 7B D1
 A2 E3 BE 82 B8 55 2C 23 8A 22 8B 3E 62 EE 87 57
 B8 4D F6 C3 07 2A 4A 35 6B F7 F4 A9 E9 0B F7 D6
 BB F7 ED 1C 20 DD 67 EA BD 54 C6 F6 67 5B 4C B5
 00 FE 95 B6 D2 6C 75 A3 4B 7D FF 32 16 20 5B 74
 73 AB 2A D4 80 68 E4 BD BC 6F CE B2 D5 AB 53 E6
 01 75 08 F3 82 BF 00 85 DB 27 D9 88 AE 01 C5 82
 D8 EE 69 FD 98 99 A1 E1 86 5E 56 9C DC 60 68 64
 44 2A 35 9B 83 CB 61 E9 39 91 4A 01 96 42 ED F1
 C8 07 B5 19 FF 58 CA D0 43 F6 59 D0 CA 66 71 BC
 A9 CD B8 6B D9 74 9F E8 A7 FD 1E 90 A6 EC 42 B8
 52 8C 43 93 5D 01 D1 3A AC DE 8E 39 B5 08 55 21
 57 8A 2A 02 14 D0 16 50 14 25 0E F6 E0 AD 7E 97
 C2 25 5A ED B9 64 B3 C0 69 F9 69 FC 17 06 00 5E
 D6 F2 F9 DF 43 4B 09 E3 19 B4 FE 89 34 34 F3 9D
 C5 E7 7F D8 61 FC 3C 94 09 59 BA 07 C6 CD 8F 53
 88 70 F7 F9 4F 70 57 43 6E CD EC 07 8C CA A7 58
 1E E9 F5 DC B5 8F 99 C6 70 A1 3F 6C BE 02 F0 87
 39 72 27 9C FD 41 D1 DC C2 F1 C9 2D DE 06 75 9F
 2C 2F 96 BE 1E 4C 66 2A 29 68 F3 0F 0A 8A 1C 66
 6F 7C 7B DC BA 5D 39 12 1D 83 CE 4C CD 95 0F B1
 25 5C 1F 21 0E 87 0C 1E 3B FD 1C 22 3B AF 07 58
 60 FA DF 4D A3 1C 4C 6D C4 11 54 7A AC 9F 11 BD
 40 0A 32 94 7C DA 88 2B 8A ED 11 3F B8 1D F3 A6
 8F 25 E3 71 64 DD BC 11 22 57 BF 1D D5 5E F3 3B
 EA 26 02 2B EA 94 0D A6 62 0E 78 32 5D D1 38 3B
 0A B2 04 C8 D4 F5 3F 16 38 69 0D 38 22 15 59 B2
 2B 9F 87 BF 9B 1C 53 1E 36 0F 99 35 7E 8C 7E 29
 BF 45 51 5D AF A9 1F AA 76 B9 55 ED 90 20 04 9B
 D0 09 22 1D A8 5C 0E FC 00 E3 28 8D 68 69 61 C2
 11 D1 6D A5 85 B0 54 71 97 B1 71 BE D9 5B 52 58
 3C D6 90 8B 47 73 3A B1 06 50 3E 29 CA A4 11 14
 1B 14 14 DD 44 3B FA 40 E1 C7 0D D2 CE 50 CC 49
 13 D7 56 82 85 69 64 C2 D9 76 6A DD BC 96 A4 15
 D7 8F 02 E6 B2 61 1E FC AC 1A 36 66 E0 D3 76 5B
 00 F5 01 59 F5 1B 6A 80 18 41 95 E7 F8 1C 75 98
 5A B2 92 EF 56 90 39 59 4C 5A C8 1D C9 85 3D 2F
 5F 72 D1 D1 8A 9D 83 29 8B 6A 15 B0 88 5F 4B A3
 D3 86 1F 6D F6 BA 27 15 18 E1 D8 1A 32 86 99 60
 48 75 E2 48 C3 18 9D 58 34 5F 5A 2C 1B 34 2E 6B
 D2 4E B6 88 73 8F 90 56 B9 7F DA A3 8B 9D 69 8E
 13 80 C7 8B 9D 3D 08 84 F0 1D 72 BC 2E 8A B7 C1
 93 88 3B 4C 83 C5 2B 1C 76 8C B1 B1 0F 8E 3D 9B
 9F 20 30 AE 5F 6C DC 61 0C D2 E6 B3 29 7F 6B E2
 73 DB 03 79 D7 D5 5B 20 F2 D4 C8 6C 61 71 02 A4
 F0 60 8A 0F 11 B6 07 D6 67 C3 56 70 EE 8D 51 61
 0B E6 A9 E8 DC 05 5F 7E A0 18 FB B3 C8 DB DC AD
 75 75 1D AD AB C1 DC EF 99 63 D3 F9 B9 0E 8F 6A
 8F 1A 03 90 37 F9 16 40 6D 2B 57 47 75 E7 E8 74
 A8 F7 31 11 B0 28 08 60 8C 32 26 87 AA FB 48 A4
 E1 61 2B DA 87 C2 5C D0 EB 13 F6 A4 29 A7 9A BF
 BE 02 E1 DA 40 AE AC 53 97 0B D4 72 A9 56 7F 05
 9A 95 60 C5 EA 49 60 EB D1 E5 89 CD 8F 59 E7 1E
 35 26 BC FF B5 5B 5D 9E A7 F6 82 CB 33 9C AD C5
 5F C1 B1 DA B4 6A 04 C8 E6 CB C6 24 91 84 9C 17
 C4 01 90 C1 EB 5E 73 6C 30 26 6E 6E 76 02 A0 0B
 27 0D 92 8A A4 59 1D 46 C2 FD CD 91 DE E8 A1 BD
 61 AF 13 66 FF 86 09 60 A9 9E F9 95 E3 48 0C AC
 5C 7D 62 65 7A E6 93 2B 0D BC 5F 49 99 80 FC 75
 2E F3 7D F2 21 F9 8C 3B 7E D6 B4 AC 76 30 5D 57
 3A 67 1A 8A F3 C2 04 84 3D 3F 27 76 AD 98 C7 F3
 E1 7A A1 AB 0E BB 29 97 26 EC DE F5 DA 52 9F 57
 97 6C 5D EA 37 6D 5D D1 C5 E3 75 99 E6 39 E6 26
 34 0A 00 51 63 46 DD 67 61 F7 99 E3 4A 81 76 C5
 10 B5 F5 F9 D0 8F 72 1B E1 C4 15 A3 EF 44 DF 45
 6E 19 03 13 E1 3D 0C 15 2D 1A F1 C1 5D CD 69 EB
 13 42 87 0C 2F 00 8B 07 15 06 AE AD 8A 28 6A 32
 C4 F0 1A 36 DA 06 58 C5 11 33 D4 3F 58 D0 B9 2D
 3C 77 A1 4B 3A 23 FC 1A 48 AC 62 FD 83 C4 92 E1
 BB FD 51 18 0C 0E C4 EE EE 30 EB 4C D7 5A E9 89
 11 B0 D7 21 2B C5 AF 67 82 9C E8 A9 A6 D6 B4 BA
 49 BC 20 C0 99 B7 E5 BC 90 15 5F C2 72 54 10 2C
 29 1B 76 D2 D6 88 1B AC A8 9C 27 6E 2E 8C 86 30
 53 D5 DB B0 EA C3 31 A0 B7 5A 12 8C 3B 2E AB 65
 61 D7 7A 81 3E 21 35 6D FE A7 DB 20 15 40 31 A4
 A7 27 AE AF 52 80 AF 6A 9C E5 2E EB 83 C7 3B 39
 9C 7A B5 21 53 92 ED 0D 8B F3 B3 16 C8 CD 76 A0
 10 62 9E A2 C1 31 8D 14 4D E1 D6 BE 9B 80 8A 30
 05 11 07 79 63 40 F2 54 6F 34 5E 7D 7D E9 00 A1
 9C B1 E8 E9 43 FE D9 C9 2D 19 EC 41 8E 7C 0C 32
 35 4C EB 2C 94 37 70 D4 39 90 77 03 2C D0 17 A7
 70 AB 49 54 10 00 F4 B6 95 CA 83 C4 20 50 5C EF
 66 27 0B E0 C1 9C B8 84 C1 48 75 F8 C9 CD 0C 03
 9B 20 25 85 D1 56 46 0A 1B 56 9C 41 35 12 BC 57
 21 AE 7D 13 99 28 5C AF AE 2E F0 1E E1 62 90 5B
 7F B5 63 0C DC 35 42 CD D8 8D 31 F5 8A C7 C6 0E
 A3 66 25 7A CF 02 F4 E4 80 EC 63 8E 91 30 DD 35
 B0 4C 7A AD 8F 74 0A C9 F7 C8 D4 1E 86 A7 2E 9C
 09 4A 39 BA DA 6F 9F 10 A2 90 50 1F 9A 9E A6 7C
 DD 65 FD 35 CD DB 4B C3 52 13 71 12 8E 4B 58 DF
 D9 F4 7D 27 9B 62 24 13 51 E8 02 22 8B 8F A6 00
 61 E9 C1 E5 B4 AD 8E CF 56 34 68 34 E1 19 0A D5
 29 1B 21 F1 72 11 5F 4E CB 76 36 73 63 07 30 2D
 0B D3 32 DB 81 80 A3 E6 BA B6 E6 01 BD 14 7A C6
 6F 32 FA 0F 42 E9 A7 DD 8B 74 5B 9E D6 47 2D 5A
 B2 07 2C 33 3A 46 A4 44 65 23 74 3E C0 5E D4 9C
 D0 CC 58 99 FA 1A A5 BE 1F 43 60 8D 2C 83 0C DA
 9E B8 BC 06 C3 C7 DB EB 6B 90 7A DC 27 1C 43 27
 99 75 73 6E 6D 7F 38 40 FB F0 7C AF 86 A4 1E EA
 80 30 0F 8D 1A 0A 7C A8 EA 62 2E C1 F3 08 1A FD
 7E 78 BC 64 F0 FC 17 3E 86 B9 EC F3 84 6E 55 27
 5E EF 10 97 A4 98 C5 E9 6F B0 1E 73 B0 3F CC 9D
 3C 81 0A CF 74 BC 90 74 FA B9 AC 12 62 73 38 DD
 CB DC DA BE 9D D4 E0 6C 5D 29 8A 81 12 41 1E 89
 92 6A 18 D5 EF 96 47 E0 D8 5F 30 AB 8C AC 08 E3
 6E F8 1C A1 2F B7 C6 C8 15 07 54 04 93 40 8D 27
 DA 2A 67 A9 C5 02 0F 00 32 00 74 22 2D 31 4F 0D
 B4 B5 91 0B 02 B9 FD B9 97 BA 89 3B 04 C2 C0 31
 2F D2 62 B1 77 8E 24 96 81 AB CE 86 0D 83 6F B0
 C3 0E 47 48 C4 E1 03 92 99 97 F5 55 AD A8 CC D5
 2D F1 13 63 8A 3A C6 80 12 8B D0 7C 67 6D CD 94
 4A BD 6B D2 4C 87 00 67 B0 C0 B8 B2 CF F6 09 1C
 B8 E4 C5 B3 79 53 19 45 32 7C 9C FF DC 8B AB 0A
 49 26 EB 5D F1 BD 75 AB 70 3A 8B AA 77 A8 ED 0F
 5C F1 53 2C 60 77 87 C6 B8 04 CB EE 45 41 72 F1
 09 33 1C 9C FD 5E 9A 13 28 F5 94 ED 21 B8 DD 7B
 8F FD EA 7A FE 66 3D 7D F1 DF FD 17 73 0A EB D7
 CE 57 32 0B 2A 4E 3C EE 7F BB C7 F6 67 3F 22 57
 70 A6 5D 21 73 5D 49 78 87 75 79 2A 43 59 70 13
 2A B2 AD 2F 62 07 57 1E 2C F9 21 6E 9E 7B D1 52
 CB A3 1A 29 A8 31 36 42 FD 2A 30 70 6A EA C6 B4
 3F 27 48 09 41 B3 5E 5D 3E 44 BF BD 47 0A 85 24
 45 7A 88 6A 12 55 38 0D 14 3C 71 88 1B DF 1F 08
 15 93 71 7F B5 29 9E 2C D5 B9 55 1E 2F 28 2F 6A
 CF E9 A9 B6 07 FF 20 A9 7B D8 76 2A FB 2F ED 80
 A9 6A 9A 3D D4 70 8A FC 62 A2 FE 34 E0 B2 39 28
 31 12 03 48 49 1D AE 75 0C 0C 97 13 F8 2F 7A 65
 1A BB 7A AC 8B F8 22 BD 96 47 EE E4 06 F2 98 78
 3E E0 AA 5D 5A 43 D1 81 42 44 25 68 F0 5E 12 BC
 24 33 BB 84 AA A2 9B B4 8B 3A A8 08 BF C8 F7 47
 5F 03 4E DF 0C AA 41 0A F7 F2 BE B8 2A 0D 8C 22
 C5 D8 E3 A4 24 F7 A6 C2 A7 19 B3 17 DF AA 30 F3
 F9 DC 46 91 3B 4C 21 31 46 12 BC 61 A6 C6 66 60
 30 C2 C9 54 59 60 E9 86 7E D0 FA 6F AE 46 13 C5
 0E DF 3E D0 17 D3 AC 9C 96 61 DD 56 82 7D 82 1C
 08 EB 1B 21 A6 68 73 83 1D 31 27 F6 DE 89 41 B3
 71 F4 FF CF C4 7F 41 26 DF 6B DB 01 39 EC A3 E4
 6E 3E 1D BB A3 D7 2D 2B 57 DC 29 B2 F7 23 68 D3
 13 B1 F6 F2 66 50 3A 68 D6 63 83 C7 63 4E 17 3C
 C6 84 8A 79 B3 F9 B2 E3 67 0C DE D8 F9 09 4C 78
 C8 A2 B8 45 7F 2B 6E 4F 7C 08 89 56 7D FB 9B 54
 DF 54 CC 07 24 A3 31 DF 9F 25 11 50 58 AA AF E4
 22 D9 68 93 B0 0A 09 0D 55 C6 91 FA 4B 9F 3C 5E
 1B 47 AB 6E 75 35 E1 E9 E0 42 7F DA A9 71 85 32
 11 3E 5A 57 7E FE 2D E9 09 D3 3E FA 12 E5 28 97
 9C B1 29 24 4F 76 39 0A F9 3E 9C EF BA 84 7A D2
 71 AB F6 F1 B7 DA 61 FF 8A C2 2F F5 95 A4 98 26
 DF A6 43 27 F5 CC D9 87 88 C9 18 24 2D 5C BF EA
 FB 56 AB 7F 23 51 F2 64 F2 03 D5 B6 C2 69 B6 C6
 8D 27 BF 12 5D D6 B5 17 2C 0D F7 CD 31 2F ED 2A
 8A 5A 02 DB AC 0A F0 E9 D2 74 28 F7 D7 38 E0 89
 40 65 97 27 B9 76 62 89 03 06 18 A7 08 BF D7 C9
 14 C4 A1 8C 62 8D 34 7B C0 EC 5D 53 9E 93 26 66
 A6 06 3F 6F 68 BF 13 2E 5C 1C 3C 0F 43 F6 FE 56
 92 E8 E9 3B 1C 79 50 AC 7B 09 A4 D8 28 95 A0 01
 0D 2E F2 8F 46 F3 C6 63 88 CA 3D 4C 78 71 DB 77
 94 BB 99 40 8C 5B 0C 7A D7 FD AB 96 4E 76 80 24
 A0 C8 33 EF 1B 31 D9 EC AB 32 FB 44 AE 2D 82 2E
 FB 9F 13 24 F3 23 BE 03 AA A5 17 3A 1F 01 E9 E4
 B5 08 24 36 58 3F FF 66 B6 4C 9E 8E E0 1A 36 76
 7E DE 8A 8F 21 4A EF 89 F0 9A 5C 4A 7B 87 CC 91
 A0 31 20 01 8F BE 04 24 2D 54 3E 59 19 FB EA 83
 B9 82 E5 42 09 7B 61 1F 55 2A 1C 36 01 27 A0 04
 90 29 AF C9 EB E2 73 C7 23 43 02 52 56 54 78 57
 7F 2C E4 CF 16 80 36 73 CE 50 BB EC 61 6D 8C B0
 30 7B CD AC C8 DD B1 67 13 0A AC 20 ED C7 56 8A
 AA 9A D7 49 9F ED AC 22 9F 34 34 52 61 DD 33 6B
 79 B0 C2 BF 56 F1 45 8D F6 54 5C 47 E4 64 15 7E
 C8 F2 B2 0D A9 2B 14 70 EA AB 5A 12 14 AA 43 24
 33 B7 68 B6 59 9C A1 4A 21 36 17 AA 9C 8C 55 DD
 C5 7D 3A 70 F9 F0 AA 09 8B 28 5E E7 39 02 E0 0C
 C0 75 DA 6D E9 B0 41 9F A0 D4 4C 40 CB 1A 63 F3
 2D A1 2C D4 72 01 92 CC E0 32 B0 F9 CC 5A 65 76
 91 44 64 65 71 E2 D3 88 E7 D2 FC 73 5A CB 2E E2
 83 46 8C 23 5B 90 89 C9 70 B1 F9 7F 0C 25 B3 7B
 4F D0 B7 D5 B4 DD 6E 90 BE DB 3C B8 C3 FB 49 96
 7C 5E 9F 69 6F 3E 64 6D B9 F5 26 6A B7 D9 0E 3A
 F0 E9 B3 36 D8 43 77 69 AF 55 17 B0 37 24 18 DE
 F0 D5 0E A7 1A 7B EC B4 20 F5 6C FE D3 5E 78 0E
 7D 69 DF 11 DB FE C3 62 D0 50 F9 B6 2E 5D 13 C0
 FB A2 26 03 54 3C 94 95 3D F5 74 C2 47 C3 7B 9D
 3C A5 06 4A ED 9C 3D C6 39 D4 35 63 92 2F CA 77
 76 62 B7 E7 2B 74 9C DF 92 56 AA BD D8 E5 AC 77
 AA 47 66 43 A1 FF B2 C5 48 8F AE A9 54 80 85 72
 99 17 03 74 EF E7 C6 10 36 09 6B 66 07 AF 44 C8
 C6 60 0D 84 3B 84 3F 81 8E 69 4D 09 F6 0B 47 69
 36 DB 06 BA CE 40 3E EB 41 39 EE 72 60 59 51 6C
 74 A7 66 43 B4 7E EF AE 6F 90 22 E3 9F 6C EA B5
 43 86 6E 47 7C 4C 93 F2 B4 09 F3 3D 04 AD B9 8B
 19 38 2C 2C D9 D5 BC 26 72 E6 8C 6D 1A 5B D1 35
 67 4B 86 0B F7 7C 22 63 97 39 7E A2 5F 5F 54 B4
 1B 76 81 DB FF 05 DB 32 32 61 30 50 F2 00 D5 C6
 02 8C D3 D8 8F BE 83 22 C2 28 B0 FD 37 27 F3 EF
 AE A7 30 03 40 84 86 F0 5F 2C 46 0D B1 A4 BF 74
 E9 73 F0 EF 5B 04 59 BC F1 5A 73 D4 00 17 49 2E
 99 CE 5F D8 AE C8 57 C2 52 CF A4 7D A3 A9 FF CB
 8E 4B 50 6A 1F 69 83 9C A8 62 EC 07 04 A8 28 E8
 24 0E 9D 70 E2 B2 8A 6B 9D EE 4C 39 27 23 E9 2C
 95 BD 1A 39 B2 94 62 F1 9A DB D9 1A 7D C6 C6 8E
 38 08 C6 DC A8 BC C4 26 74 4B AD D1 A3 D6 95 C9
 1C 08 F6 A2 6E E4 F7 FD 63 97 E5 8D 32 3F 73 B3
 0C BB CA C5 E3 C2 65 7F A4 FD 7D 06 CB 87 8F 3F
 71 84 4B 76 72 53 4E 6F FA 99 1C 7B ED 38 1E AF
 9E EC 97 2E 79 BE A6 41 C5 D9 BE FE FB 64 C9 A6
 63 3F 57 F1 75 16 C4 F7 F8 09 A1 FF 75 90 49 37
 C9 D0 4D 3A 5F CB 41 40 E2 D0 64 E9 78 C4 2E 86
 03 9E 04 8F 52 55 B4 C0 BE EF F5 58 8C 2C CA A7
 FB FA 4F 40 39 31 4E 01 68 8A E7 C4 13 7B 66 8B
 85 A8 EF 80 5A 8F 5E 1A 21 66 D5 DF 90 72 F9 57
 93 F7 9F 8E F5 83 58 AF 2C 0C 1A FC 14 11 E4 19
 87 C7 29 71 27 26 8A EF 5F AD 7B 46 D7 18 33 0F
 6B C8 25 88 13 CE 81 44 5F 9A A1 50 A1 0A 64 71
 B4 8C 73 D3 71 51 56 B3 2B C8 D8 61 8D B4 0B 5E
 1E 12 96 0A C1 9E FC D6 4B 7D 9D A3 A3 60 C8 53
 FB E9 27 E9 B3 E3 5A 55 D9 C0 A8 17 BB DE 86 D3
 CE 15 E5 86 AF 41 C1 92 D5 51 5E AE 11 52 9B D8
 FC 24 F0 0A D5 2F FB 05 91 77 DA 96 EB 1D E7 81
 AC D3 53 74 E9 61 05 2A 69 BC 8B 1E CF 11 D3 C2
 D7 BB A0 DC 90 DB 83 33 2C 62 35 19 A2 22 99 00
 18 6B 3A A8 1D DB 41 09 11 D8 EA E0 AD 21 EE 0C
 09 A8 67 2A 80 5E 5A 50 C0 6D 41 D2 0F 86 FB F4
 4B 15 FE 7C 5E 9E 34 7B 3E D0 73 76 5B 03 B5 79
 15 3C 2B E5 7E CE B1 B6 10 3E 78 81 6D E2 5B 95
 D8 3E F7 EE 85 76 B3 A5 1B CD 0C E9 1D E5 BE 52
 74 FF BE 83 38 6E 2F E8 93 5F 1F 91 76 EC 8D DB
 09 F6 95 75 13 3F 87 FB 0D 93 C5 A0 E2 4D 61 91
 FD E5 FE 1E 37 FA 51 02 55 AC 67 EF B5 77 7D 0A
 64 ED 0B D4 F0 CB 18 E0 C5 A3 32 A4 60 D7 A0 CE
 97 18 33 70 20 29 9C 1E 46 57 A4 2D 00 99 3D B6
 98 1E 47 6D 84 36 82 07 E4 FE 95 C8 5C 9C AA 56
 68 A7 D6 27 D1 FD A9 5C 63 D4 AA B3 BE D3 84 AF
 1E 2F E5 82 FB 6E C3 36 1D B4 41 56 5B 3A 31 92
 4E E8 78 FA 29 9F B7 00 B5 7D 7A 22 5D 6F 63 C0
 A9 67 0B DE 7B B9 2C 0E 30 1D 37 0E 00 77 66 C2
 84 A3 FE 20 DE 37 7E 91 14 47 9D AE 2B 9D 6E DD
 D7 3F 94 BC 2C 39 B1 3B 62 E7 3B 4A 58 E1 CF CD
 87 E7 86 F0 E9 08 4D 71 C6 2F 14 B7 B7 26 0B 07
 D9 84 8F B4 6F 49 C8 52 68 8B 52 10 FB 2A 9A 92
 78 EA 0E 69 E7 71 0E 8B 76 58 47 E7 71 18 44 4A
 00 7F DF 6E 45 42 46 72 14 48 10 4F F9 E8 34 12
 9B A3 A1 73 F7 5A 08 20 87 2E D8 7A 7B 4D D4 4A
 7A BE B5 31 27 C7 5E 38 AA 71 3B 83 9E 40 49 E5
 83 27 DA 00 04 EB 08 59 E3 A8 DA 34 21 52 F3 F4
 C9 A3 92 02 68 78 E0 B8 FB FB F6 F5 68 BA 4A 81
 81 11 03 3F 04 F3 CA 4A 60 57 B4 46 1D A1 18 43
 48 3F 93 77 F3 06 B5 FF 4B 92 0F A1 15 71 5E B0
 75 F3 08 BF 31 6F C8 C6 B5 EC 3F 25 CC E3 90 6B
 17 12 86 B2 DC 38 CA 68 7B B0 B7 0E 66 BF 77 FA
 1C 7B 58 94 35 5C 17 8A 8C C0 81 E7 C0 9A B9 F5
 0F 52 0C 96 77 A7 72 71 33 56 F1 9B 77 98 3A 03
 73 C9 8B AD DB F7 6F 9E 73 45 68 DC 24 92 F4 4A
 7D 23 0D 21 5D 20 F3 A9 21 92 69 CE 85 14 99 61
 AD BB C9 35 C1 40 A9 3A 3A F6 C6 FA 75 1B 7A 93
 86 7F D0 FC 0C 25 4E 7F 61 B5 D6 9C 02 87 0B 81
 0F 7D 5B 62 9D F4 FB E7 44 E8 71 81 57 0A 63 23
 D8 DF 3F 2F 8B 9D 56 A4 0C 3F BB AD 86 D8 84 64
 85 F6 D3 10 F4 95 5A 0A C7 C3 A1 1D 94 A4 5A FE
 26 5C 9C F4 3F 97 B6 37 47 D8 4E CE 19 81 7B 8D
 8F 47 02 3D 25 C4 7B F7 43 36 C2 14 54 A6 EC 66
 1B D8 EF AB D1 EC 1C 72 54 26 7D 22 89 75 8A D5
 BF 5A 18 62 AB E8 56 CC EB 2D 29 82 19 16 CF 71
 29 25 A1 D8 F9 7C 33 93 5C E7 8F E1 48 B9 7B A8
 5D 75 03 8F 5C 7C 49 A4 6F 34 A7 62 E9 1D 3C 16
 56 AD 10 32 6F DB F3 46 A4 24 D7 4E C5 3D C5 47
 98 A1 2A 3F C4 4E 53 53 7D CF C2 14 EE F8 33 29
 72 23 4B 43 02 C4 39 0E 61 AD A4 41 E7 65 62 8C
 CE EC 4F 50 56 B5 55 FA 58 45 0B A2 1E FA F8 3B
 38 72 1A 96 B6 89 1E 8E 68 D8 D1 36 27 A2 1C 2E
 A1 A3 2C 70 A7 38 D2 0E E9 82 24 7F 86 49 F1 72
 31 94 F7 EA 8C A7 C9 3A 5B 0C 6B D8 42 54 41 95
 6B F7 6D 77 E4 FD 30 FE 2D 10 66 0E BE 4F 04 DE
 DD 2F FB 0F 79 DA 4D F9 F2 E0 E9 42 74 C2 99 14
 EE 9D 63 64 AF 6C 21 85 34 CE C5 BB 66 14 F3 92
 2F 3B 94 9C A9 25 07 12 3C 58 BA C4 80 45 FA 44
 78 7E AD 37 E2 85 85 96 C2 E8 EE FD FF BB CF 22
 82 34 66 E0 FF 12 1F 47 D0 03 76 41 DF 13 D5 4F
 C8 FE 3A D1 E8 38 A2 EC EE 58 A1 03 EF D2 F2 E5
 B4 F9 62 83 0A C5 F9 2F 8E 7A CB F3 54 C2 7C 54
 CA B7 B6 63 6D 25 94 BF 43 E1 CE 67 66 2D FB B2
 B4 6B 70 D3 75 B0 6D 9E 7D B7 E4 D6 29 D6 B9 DC
 52 66 39 7C C9 6E 06 ED B9 28 43 76 33 B3 73 80
 C9 09 BD C4 14 8B 42 01 E5 85 69 DA 93 FF 1C 81
 B5 B9 94 4C 9F 1A 80 F6 A6 8E 41 13 21 AE E2 30
 CA 37 C0 D7 96 CB 95 6A EB E0 9D 43 09 47 0E 65
 86 F5 C8 ED 09 9D 9C 29 D8 AB DC E6 B3 20 05 D6
 69 E2 3A C2 EB B3 6F 16 68 03 E2 60 33 C6 69 D9
 DD 5F 95 33 2D 2D A4 37 C4 41 B3 33 C5 55 3B 54
 47 60 0C B6 F8 10 26 D8 29 3D 58 1B 48 02 53 C1
 61 41 40 BF 9E 58 41 3D C8 23 E0 59 4D D4 05 5B
 4D 06 29 77 5E 3D 86 B7 12 9B D6 1B 5D 34 7D CD
 09 DC 4B E0 60 4A 43 5A A8 CD 97 A4 6E 68 28 FF
 DA E7 A7 CE C2 74 5D C9 19 B7 3A 2B C6 97 0F 1D
 90 1B 4D 89 5D 19 20 19 53 FF 97 4C 16 8F DE 5E
 FB 4D 0B 14 AC DA E7 8E EB 2C 16 35 08 F4 05 5B
 48 0D 90 F6 92 B2 72 B2 53 B3 5C 48 74 FE 49 B0
 B9 DC D1 6C AA A4 2E 76 D3 61 E6 11 63 06 58 23
 F5 21 B5 4D 02 4F 8D 7D DF 58 AD 74 C1 63 4A 80
 EC 5E 9F 45 B6 06 D6 5E 67 B8 73 9A 63 E9 B2 3C
 99 2C 06 E9 7A FF 46 1D BD D8 1E DF 14 01 1B C6
 BB 6E B8 CE 04 9B 1D C5 04 20 8D E0 A3 D2 14 14
 20 FC 9A 85 96 58 69 C2 49 46 69 56 D9 A7 3A C0
 58 67 3F 92 96 C2 EF 40 71 80 4F 82 6A C7 76 17
 37 D0 3B 96 03 6D A4 1E 6E 2E E2 1B FB 03 21 C5
 80 BF 1E 71 AD 11 C3 47 0C F7 09 C5 A3 DC 1E B2
 77 37 89 80 ED 5D 11 2E D7 D7 4E 93 A5 84 F7 21
 3C B7 2B 74 A9 C9 9F 63 02 25 36 E3 11 E4 24 71
 C2 89 5B E1 54 EA 8A 2F 77 34 80 30 8E 0B D0 63
 94 43 49 86 47 48 81 1C 3E 00 11 DD 61 BF 5E FA
 5D 07 BA BD 23 4F 51 04 DE D8 61 0A E3 A7 65 D1
 DB 7B F2 E0 D0 A0 A1 7F B4 0C AE DE 2C 2B 12 8A
 B5 C1 BD A9 48 2E DE 3D 79 8D 46 D3 FC 00 69 AB
 51 48 D6 7D EE 43 A3 1A F8 C2 D0 BD 58 0C A6 59
 F9 84 1F D0 33 A1 1F 66 90 FB 20 6C 53 61 47 44
 A6 D5 54 80 86 C3 92 63 D1 6F E9 B8 D9 79 3B 13
 79 C4 CD 94 DE DC F9 6F 49 80 50 56 60 20 94 AA
 5E 35 CE 57 4B 43 15 7B D3 BF 43 F7 F1 7B 4A 2D
 77 92 3B 45 78 22 79 87 04 1F 81 25 D4 BF A6 EB
 6F 07 E4 FB 82 E2 DF 76 17 AE B9 F3 8A A2 C3 93
 A3 3C AF 1B 47 AD 60 A7 98 1B C0 7F 4E 72 E2 5C
 99 CC 89 F4 CC 35 46 90 7F 1A C2 66 50 92 F9 23
 CC 1A C6 B0 9E CC 24 F9 4E B7 8D 4F 6A F7 B6 57
 37 CE DF 6A A0 2C E0 9C F7 79 1E C0 65 46 15 15
 B3 0B 5C 66 AD 37 C6 DC A7 A2 43 B3 61 46 29 F1
 E1 6B CC C2 1F A4 C1 DA 11 5F 42 79 78 FE E1 C2
 AA 4A D4 CC 01 0F A9 8F 72 E6 D1 24 5D D7 01 E0
 22 FB 4F 1C E6 2D 4F 7F AA BF D1 9A 36 13 3C FA
 AB 76 AC 52 7E 12 50 A3 5A 17 DC E8 C2 9E AB B2
 3C 6B A7 16 3C 16 E6 8E E1 0F 9A D0 46 D0 00 46
 BF 81 57 96 80 22 66 DD 0A 41 30 52 DF B7 4C A0
 12 32 E3 BB C2 F0 FB A4 37 40 61 C9 DE BA 90 16
 CE 78 C4 73 F5 3D 1C B2 D2 DF 86 2C C2 FB 7F C4
 1D 2C 21 76 E4 2A 4B 2F 64 0B 35 82 46 AC B5 2E
 8C E4 74 4C B9 A7 10 AB FD B1 4B F3 95 63 2F 44
 C0 59 DC 6D 6A 77 C0 C8 34 A1 90 5C 8D F9 C1 C2
 BC 5C 80 8E 3A 39 8F CF 00 30 A6 1E EA E9 9F B1
 A9 94 8B 48 65 BC D0 A5 A3 D6 06 14 13 9A E3 B1
 86 5E BB 40 03 9E 37 0E 8A 4F F2 E8 CA B9 87 7C
 F9 71 61 C7 A3 C6 26 50 94 6D 08 81 27 E5 3C 11
 16 FF C9 12 27 99 DA AB C0 0D B4 72 D0 64 C2 24
 8E 9F D6 A9 DA E6 6C 85 FF C0 6B 02 25 D5 88 C4
 ED 64 CA 39 17 9A AF 46 D7 B2 FA 0E 48 68 FA 5F
 82 AD 83 69 75 05 D8 9B 4C FF 5A 1C 56 92 D3 11
 03 E2 CA 69 89 21 30 FD B1 7C 35 62 D9 9B D2 D7
 FE E1 8F E2 10 C0 69 A8 23 27 89 C8 13 B7 EF 4E
 DA 00 61 C0 9C 83 68 A9 13 CE 0A 32 4E A6 C6 C7
 A6 2E 15 08 F6 86 99 BF B2 38 83 D5 54 02 9E 33
 4B 60 A0 3B D7 EE 15 07 E4 B8 1D 76 BE 1C A7 2A
 86 A5 A9 42 95 EC 6D 09 69 2F 30 78 2C 72 F6 BA
 E1 9E F3 4D 40 03 4B 4E 25 6F 8D 10 F1 4F 6D 87
 8D 7E 27 3E F9 5A B8 39 AD 7A 2A 96 94 3C 54 56
 36 60 51 2A 1E D4 40 73 7D 3D 63 C0 BF 16 86 7C
 17 C5 FB D8 4B 5B AE B9 30 BD E0 13 5A 33 AA 08
 17 77 D4 A5 54 E0 79 48 8F 50 0F 05 57 99 AC D7
 77 2A B2 8F 4A CD D0 47 97 9A E4 D8 5E 86 74 25
 2C 9E 66 57 EF 3D 10 D9 24 D0 4B 1B 1E F4 AC 28
 49 F1 47 C8 3C 47 F5 6E EE B8 51 A2 55 A4 26 32
 84 38 12 D9 58 45 51 DA FF 4A 7B 63 89 CF 2F 69
 47 AF 17 A1 BA AF 00 02 B2 C1 1A 0E 3D 7B 09 9C
 84 F5 A5 03 C9 C9 41 5E 08 70 7B D8 5A 8D E1 A2
 5A 67 52 99 C5 B9 55 CD 57 3B 47 95 AF 3E 10 A7
 E5 CD E3 B1 65 DF D7 0E F8 08 F8 52 C6 E5 27 DA
 98 62 39 80 F7 B7 BC 9C AE 43 92 19 57 FB EB 15
 AA F8 67 7B 7C FB E4 55 DE 7D 5D C5 BA 31 E7 5C
 72 EC 42 C9 E0 56 C0 85 52 D7 32 3A 3C 8C 24 36
 0A E1 E4 3D 00 08 E1 1C 17 AF B4 16 D9 C0 82 96
 63 F8 E6 14 27 96 5F 73 56 2E BD 05 61 8B F0 78
 82 60 5D 26 78 F0 94 C8 AC A1 22 2D D8 F3 67 53
 05 64 F0 E5 22 FF C6 F4 89 EF 02 0F 18 27 30 7E
 B0 09 5E F9 5E 35 D9 67 EC 4B F3 17 B6 C8 9F 5C
 C9 3E 68 7D 4E 11 AC DB D0 A3 43 35 71 D8 79 10
 94 B4 FC 88 79 1C 8E 3F 93 48 B3 03 2F 11 3B F1
 50 A3 92 FA A5 97 0F 1E 60 F1 D6 87 07 6E 42 5F
 16 E3 D1 49 96 7A 07 F7 33 C9 AC 94 65 C9 40 86
 EB 38 FC 33 FA C9 B8 7A D5 B0 8D 6D 08 70 D2 99
 5B 53 10 7F B5 13 31 C4 B6 7A FC 5F E5 FF A4 70
 9D 5F 4B A1 21 FB 29 5A D7 C6 09 66 C3 9D 59 42
 94 D6 B4 BF D6 02 FB 21 20 62 01 76 8C 41 08 50
 C2 95 1B 5D DD 59 EA B0 DB 30 19 53 F9 14 F6 E4
 0A 93 06 86 F9 12 2F 23 62 59 66 34 39 21 E8 2D
 D0 4F C2 00 51 10 5B E6 B6 26 12 C2 59 A6 43 90
 79 2E BF 13 AC AB 40 B1 4C 53 EF 3C B8 AC 03 5C
 E7 A9 CE F9 7B DF 37 E0 B3 9D 6B 14 59 0E 1B E8
 A6 2E DB C0 F5 14 CE 9B F5 11 29 22 C3 F6 B5 FB
 3A 4F 46 08 81 D7 F1 EF 58 6E CB 22 04 1C FE 17
 86 14 23 EB 7D 1F 8A 96 2E 29 6C 43 8B 7D 17 A1
 59 26 BD 4E 62 16 1B 45 EC 42 26 4B C7 78 1D DA
 D0 FC 3C 32 80 20 63 AD 15 D5 48 24 2B D2 0D 27
 F3 B5 A2 8B BF 35 AE 73 6C D9 C7 45 34 F1 61 31
 C7 6A 41 8C 57 4E F1 AA AB 48 05 C5 0E 56 23 74
 E8 9C BE 69 5C F1 6D 4A FD 9C 9D 31 FE AB 6A 79
 B4 6E 55 A1 FB D4 8C 08 BD 08 CB C3 49 D1 C0 55
 6E 08 59 A7 78 8A F1 10 E4 BD 0A 4E CA EB D6 73
 E6 D4 7D 26 3D 04 A9 22 40 B9 3E CA 34 21 80 4F
 CB A2 98 23 95 F0 86 DC 69 52 83 F5 AE 53 36 D7
 D6 6D 92 A3 CE 25 75 97 41 7B 7E 1B 69 5E 48 34
 82 57 90 37 82 D4 26 D9 92 29 B0 E5 B3 B1 96 91
 0A C0 12 A2 F7 1F 37 A3 FD 56 F0 1F 87 7E C4 9D
 AE F8 A7 CD CE 11 BC 5C B3 3C D1 85 B9 74 F9 26
 AB 64 75 62 E0 AB FC 25 8E FC 79 33 64 6B 42 EC
 0F 03 D7 27 68 C0 27 63 8E 11 5B 71 BB A8 CE 1F
 E7 72 CB C2 65 9E DD F7 87 4B 4A D7 5C FA B1 CA
 DD 8D 8D E2 76 32 D9 33 5D D2 FB 69 9C 99 9C FA
 F6 FE B9 DE 53 6C 34 FD 8C 57 07 D4 9D 79 8E 75
 76 B6 15 3D A4 50 E9 C1 A4 92 9C 0B 43 F5 66 35
 D5 FE C6 9A DA C5 FC 94 8E 44 7F 31 95 3D DA BD
 FD 08 17 1D 16 1F 12 86 FB 2C 30 BD 58 18 D2 79
 32 BF 83 79 A9 00 7F 1B 3E AE 32 A8 2A 50 47 0A
 FE 20 D7 BA 2E 15 E3 C4 1C CD 78 D9 03 EA 4D 1E
 D6 02 39 58 62 DC BF FB 2D 9F 19 41 F7 46 88 E9
 93 C4 26 6B F8 BD 0F 24 91 8A 78 71 1F 9E 08 E7
 2F 8B B5 27 F1 C6 BD DE 24 45 5E BB 80 3A 86 F8
 BE 97 1F 9E D7 B8 6F E9 83 7C 9A B3 07 ED E8 1D
 17 3A D7 F5 EB 1F A4 74 7D E0 CD 8E BC 5C 9D D8
 95 7B 45 09 9A 5D 83 C6 6C 66 47 3F 19 2B 3D 78
 AD E2 89 A7 FC AB F6 67 14 4A 21 49 DB 66 15 0C
 2B E9 03 DD BF 97 CA C6 D4 6F E2 36 09 81 3B 65
 08 29 BE 44 99 20 5F 70 28 21 25 13 EB AE 73 C4
 08 53 EA FA 3C 42 E0 26 79 B2 9D 44 40 C6 E1 C6
 9F E8 2F A5 E6 BE 6C D2 1C 9F 10 48 3F 72 69 73
 C9 A9 75 29 08 77 C6 44 CA D9 39 6C 94 72 72 4C
 87 D4 15 F5 CC D1 F0 FC E3 B9 47 42 ED CC 0D 1A
 8D 90 A4 4E 2E 8E EE 98 40 45 60 F8 5D 37 E5 24
 F2 37 08 C0 59 FE A7 A2 01 9A C7 E1 79 85 79 93
 95 6D DC D8 5A 6C 08 AD BD FA E7 E1 46 9B 1C F0
* End 1457499733 3991709762