* LTspice Encrypted File
* 
* This encrypted file has been supplied by a 3rd
* party vendor that does not wish to publicize
* the technology used to implement this library.
* 
* Permission is granted to use this file for
* simulations but not to reverse engineer its
* contents.
* 
* Begin:
 1C EA 31 B2 E9 77 42 F3 61 A8 47 7D 71 39 40 20
 82 46 9C E5 55 CE 66 DC E7 F3 25 D5 07 AE 6B D6
 FE 61 A3 82 3D D8 83 D1 5E 28 98 FF 6C F9 65 E8
 12 71 83 AB 17 82 50 2F 59 5C 19 4F 6E A9 F9 36
 BB 92 A1 40 49 2E 91 23 79 DC FE F7 D7 58 5F C9
 EC FB E2 A5 F5 1D D4 A5 EA 48 A1 17 E3 30 62 9A
 F8 54 D2 6B CE 11 AC 63 E3 03 94 A1 8B 02 85 0F
 7A E2 10 1E A1 50 AE 58 00 8B 39 90 42 0C DD AD
 78 F6 6C 3F 68 C3 14 FD 24 73 C1 AD FF C8 07 92
 BE 28 6F 61 57 E3 76 66 33 66 DC 8D 73 C2 B3 81
 B6 E5 21 BD 41 F5 8C C0 1A CA A6 77 17 A9 48 CC
 B8 94 27 14 56 1E 7E 68 D5 C5 BB 11 20 30 AA AE
 EB FE CC A6 1D 5B 0C E9 6C 73 00 0E 82 DE 9A BA
 03 40 47 3D 80 63 84 F8 49 A7 3B DA 68 74 0C F0
 80 C9 2D 60 FA CE DC 46 70 7B 4E B5 0D FA 30 64
 1B 71 AD A8 CC 02 68 73 DC 15 DE CB 8A CA 5A BA
 9C 61 3D 66 8F E8 ED 9B 20 59 FB 35 44 4D F4 04
 BC 4C BB 97 E4 02 30 78 E4 43 A6 06 75 4C F7 65
 A8 F4 33 2B 7B 28 6A 4E 12 E9 D9 F8 A3 03 DC FA
 30 E9 C1 FD 95 1A B3 4B 6C 3C C1 46 E9 99 33 AC
 3F D5 96 A7 02 71 15 AC 28 EF 54 39 3E 6E 99 8B
 72 7B D3 9E E4 F2 37 79 B4 97 6A 42 33 B4 0C 98
 58 CB 9A 95 BF 58 A6 A4 4A FB BE C7 55 BD 6A 6A
 8F 1A DA 96 31 72 A2 A0 BE 31 44 74 28 EC 51 E3
 AC 5A 20 90 06 AF FC 75 14 C3 DB E1 F6 D5 2E 8B
 79 5D 21 F1 95 D4 A6 D8 1A EA A0 F8 94 38 99 80
 97 AE 46 F6 50 93 39 07 29 B3 89 86 7F 7F 55 A3
 97 19 47 E9 57 39 A8 52 8E 98 0D 68 DF 90 EE 4A
 AA 0D 04 C2 F6 04 C4 39 97 B0 08 66 22 1E 12 B6
 57 D2 22 C4 E7 E8 CF F1 AC 62 5C 70 67 AC 04 DC
 17 4F DC 94 35 1E 8A 7A E8 AC EC F0 62 C1 B3 45
 CF 4B F1 84 92 57 6C EF 8A EE E7 15 E1 67 D4 74
 45 11 DC 9F 7F 0C 79 16 26 BE 3A DB 44 60 55 10
 0B F7 5D CB 1F A5 B2 0F AC A4 29 DB 1F 33 7A D0
 51 0F AE 8A 5D F0 37 0B D0 F4 24 52 4A 9F BA C4
 95 9C 96 AA B7 62 C9 94 6D 95 5E A5 D5 CF D4 B3
 49 D4 51 18 99 38 E8 39 79 50 2E 57 D4 22 F8 F8
 AD 15 26 2E CB 76 78 74 A6 45 10 E8 CA 94 CA 74
 28 52 92 3C 92 F4 C1 73 7C 21 D2 D0 7E DB 01 5F
 9F 86 5F 9C DE 13 55 1B 35 54 9A 4A CC A9 52 17
 31 B0 45 25 68 A1 96 8F A8 DA DC A0 7D B0 88 35
 DF D7 C3 43 61 96 E2 C5 55 5B 70 C0 08 62 20 DC
 75 01 1E C2 F3 1B 22 DB 76 49 56 47 05 A4 B4 E9
 A1 64 A6 6D 81 14 79 F1 2C 99 A8 66 D2 53 71 A4
 B8 2B 2B A9 44 C3 3C E5 B3 B6 0B 47 10 6C 3D B9
 9B 2D 9A F7 22 A8 E1 E9 D3 69 4C F6 58 BE BA 6C
 6C 5D EE CF 2B 99 61 AF A7 6F 4F 3E 71 41 59 87
 FE A6 D6 28 0C 48 30 17 13 BD 37 C7 3E 18 55 0C
 CB 62 D9 7C 62 61 47 EB C6 3E C7 6F D6 8B 65 6B
 1D 0C D3 5F D3 8D 0A 93 40 97 4A 36 96 CA 11 BF
 BA 57 6C FA 4C A1 01 96 67 07 4F 66 DE 64 7A EC
 B1 70 62 68 B6 D9 C5 27 63 C4 62 2E DA F0 99 9C
 82 F2 B0 C7 92 EE A4 28 57 11 7E 34 8A 9A E8 63
 8A E4 70 95 E1 45 05 AE 8C 3D 48 10 BF 7E 68 54
 85 8E 36 9C 87 B8 96 38 A7 C8 A9 41 CE AB 3E 65
 DA 1C 98 4B 51 6E B4 B9 ED 79 D2 92 18 0E 1A 24
 B2 FF AF BC 45 03 4F 8C FA 0C 61 6C EB E4 74 A8
 75 01 6F E5 1D 7B 8C BE 2E A6 29 F1 2B 3B 3D 5A
 FA D8 A7 94 79 19 28 1D A3 58 E1 50 16 51 43 AE
 06 AE BC 81 9A 93 0D F9 39 8C 71 8E ED BE 4E BF
 D3 9A D8 AA 4E 97 60 EE 6B F1 6A 9B FA FC 87 3B
 13 43 29 83 45 2E C6 A3 69 53 EF C2 54 C4 85 9C
 2B 8E C4 E9 F2 ED F2 51 55 9F DC D5 01 6C C2 5B
 25 A1 94 08 1C 4E 56 6C C8 56 BA 85 40 3D 24 64
 F7 75 AE 8E B3 5F D4 C3 27 1E 5F 39 67 5D 63 2A
 0B E1 A3 89 86 EF F9 2E 57 EC 9E 92 A9 B3 E3 DE
 76 6F D2 83 86 90 28 E6 E5 11 1B E9 30 49 B7 D9
 24 A3 5A 8C DF 24 0A D4 3D 3B 9A 15 B2 42 F8 65
 78 25 03 19 38 1E 9D 7B E1 25 8D A5 71 42 39 94
 02 8E 5F BF EE 5F 2F 6D 41 B7 F2 67 00 5F 95 F7
 3D B9 2A 65 9E 3C 96 0A 4D F1 63 23 C1 8A DC 66
 4B 07 59 01 70 93 AA 37 8C F6 6C 59 69 F1 8F 41
 02 7D 0B 43 56 AF 81 24 F1 66 4C D7 F1 37 EF DE
 2C 37 29 D8 44 5B 93 8B CD C0 A0 96 6E A0 78 78
 B3 9C AA 86 E3 9A 61 59 3B 72 D8 6D 00 64 68 FE
 AA 7E 17 1C 64 77 2F 14 9A D9 60 3F A0 86 18 CD
 94 9D 69 84 F8 63 64 2F 0E CB BB 4D 9E A1 B7 FE
 D8 62 2A 84 9D 2B 52 CB B5 40 C6 C3 67 BD E1 FC
 11 CD 66 91 38 E7 CD 8B CA BF 8A 67 47 8C 62 31
 24 C1 40 27 E5 C1 E6 0B 0B 3B 67 3A BF 6A 6A FA
 5D 4B FB EE 39 1C B3 91 32 45 A6 2A 92 18 EF 3E
 6C 15 A4 07 01 B1 84 A8 EC D6 F4 91 80 52 1E 32
 A3 97 C1 A6 46 5B 03 8C 01 A3 80 52 F4 5D 80 8C
 16 26 41 6A 7A 6F 62 23 54 DA 80 37 19 BF 2B 05
 8E C7 75 C2 09 1A 3C C8 0C 4A 3D 98 13 E1 54 02
 56 D5 3B AC 8A 84 D8 95 F1 20 76 43 7C C6 79 6D
 A7 7B EB B6 DB D2 AA 25 B5 5E 25 A0 5A 98 A5 20
 04 3C 1E CA 66 6F 0B AB 59 CC BE 5E BB 6E C5 9D
 34 69 B0 23 AD CC 8D 3D 6B F2 21 78 1B 9D D9 F6
 8D 65 BE 25 93 29 4E B2 24 8A 7B 2E E4 8A 61 9B
 3B 99 94 18 78 C1 1A 95 3A 13 AB 8A F9 82 BB 08
 4D 86 1C 7B 83 0B C6 C4 B2 EF E9 9B 4B 13 42 01
 BE 5B 54 49 5F 49 F6 F2 70 D2 28 8F D7 4F E7 9F
 E7 10 ED 91 FA 6F 06 2A F3 14 6B E5 62 7E 8D C1
 E3 40 F0 BC 39 68 7D 94 40 C9 EC 15 99 17 78 F6
 05 F5 BB 71 58 F0 B0 63 A9 34 8B 8D 0B 7D C4 45
 45 70 51 E2 C3 AA 37 74 FA 31 6B 52 92 8A 68 E0
 6A 0B 7B BB 5F 99 93 36 CD 4F 8E 75 5F 8B C1 EE
 47 0E 32 30 E6 E3 20 A7 0F 55 7A E3 7F 0E E9 FF
 82 92 D0 DF C9 EE AB 1B BC 67 E1 75 3A D8 AE 43
 F9 E6 0E 2D 95 D3 18 39 EC F2 C0 16 56 D2 88 91
 22 F9 B5 7A 1D F0 1D 97 04 95 3E 8D 48 80 A3 BC
 F4 81 B0 1A 34 8B 4C 72 AF FD A1 AD 51 2F CD D0
 CE CF 47 84 90 D5 4B 80 7B 47 91 90 47 E1 0C 15
 A6 CC 08 E2 B0 E2 A7 3D 20 D8 03 0D 39 AE 7D 01
 97 A1 9C D2 D8 F0 24 46 DF 4F 2A CE 01 A1 D5 C6
 8B BA DC C6 E3 B9 A8 21 21 08 E2 FB 54 CE 9F EC
 68 5E 73 48 E3 30 BC 0B 9F C1 7D BE C3 45 D9 78
 52 FF DF EA C1 49 EE 0E BA 7D 47 81 87 CD 2F 3D
 AE 43 18 C0 21 E8 CD 0C 95 65 60 DD 82 40 A9 D9
 6E C7 57 96 DF 65 94 C1 03 99 30 6B 60 B0 A5 F7
 32 4C AE D7 10 60 40 AC 4B 4C 50 02 08 94 C1 9F
 7A 53 11 39 CD 44 01 E8 D9 5E 2E BA 97 D0 AA EF
 B0 AE 5B AF 6A D2 D2 76 38 9C B0 B1 1E B3 E9 1F
 09 B3 1C 41 4D 99 5B 15 FD 4F B9 89 10 78 40 F1
 F1 63 CD 12 17 3F 65 27 D7 96 2A A3 5B 99 74 A5
 5D 46 2A 47 BB C6 C1 5B 07 0C C9 43 A7 EE 8F 92
 18 16 53 CB 28 1C 0B C0 ED 30 89 E6 5F 84 89 9D
 88 BA 05 88 62 D2 D9 8D B8 FB 1A FF 00 F3 46 49
 3D F3 65 61 65 C2 B8 FA 84 9E 19 C3 50 7D 1E 20
 1C 68 72 43 DC B0 81 72 7F E7 02 75 BA D2 B7 9F
 6C 4C 9A C6 91 87 21 78 AF 2A 28 E6 ED B0 41 9B
 AD 31 FD 58 43 30 D7 9C 4C A2 56 DE 40 C5 A6 D5
 14 50 D4 68 A4 F7 14 B5 DC E3 5B 6B DF 08 E8 E2
 39 E7 8D 7D F6 77 6F FA 0E 81 A3 E3 B3 D0 77 5D
 BC A7 47 92 10 3F 60 19 67 93 72 75 B8 4D 10 87
 F6 49 19 C0 34 3A 98 B5 1C EE 46 E5 75 BE 68 B0
 A3 22 BD EB 09 FB F7 0E F3 BC 6F EE 81 39 74 80
 28 72 E7 88 D7 F4 D4 81 8D 8A A7 40 6B 2B B9 A3
 E6 C1 7F 72 86 1C 63 F3 53 E7 0E F9 8A 4A 09 1F
 29 44 BD B9 95 44 A5 4D 88 58 3F 1F 17 2A 58 C6
 B7 66 C0 A5 DE E2 2E 57 47 D4 F8 33 FA 74 97 13
 A0 DD E2 79 D9 E7 32 84 42 D0 BF B0 3C 3D AD BA
 F6 5A 86 FE 22 F6 06 A2 AD 02 22 E4 E7 1C 1F AE
 A6 13 12 1E ED 03 02 EB 0C 41 12 55 0E E4 60 FD
 43 81 B4 5B 8D 45 EC 7E 62 AA 64 F4 0D 0F 60 B0
 BE 0C 7C 19 15 25 C6 49 7A 70 04 8D A3 39 47 DD
 03 14 12 DB 0C 87 B2 B1 25 41 0C E4 65 EC A2 5A
 32 27 6B 8E 58 60 35 81 02 44 B6 60 6D AF C9 62
 AE C4 88 1D 8E E3 C0 31 E5 5E E7 2C B5 C2 87 05
 B8 8F 4D D8 72 86 82 33 B3 7A FC 5A 9F D7 81 C4
 6B E2 BD 0C 7D B9 A6 7E 12 8E 76 E6 14 57 50 DC
 C0 AA 19 0B E3 FC 8F B0 A6 85 CE 26 D6 A6 8B 60
 43 D5 46 2F C4 5C CF 8F 6D A0 8F 59 7D 95 F1 03
 14 FC DB 47 C4 BB 87 F5 7E 81 F3 69 3B 5F 25 39
 7B 29 41 A2 36 2D 40 8A 6B 5E 3F D9 C5 32 93 F5
 23 C7 66 D0 82 7C 29 03 90 36 B6 59 81 C7 87 63
 5A 4D 85 22 C2 7B 85 6B 4A 1F 62 2B AB 84 59 AB
 33 8A 6D 8E B1 D2 5E A7 EF B2 7D 8B A3 D2 7E 87
 CF 5B 09 CA CB 89 5B C4 C3 E1 BE 67 83 2A C7 D6
 46 89 EC 0B 20 64 ED 6B F8 DA FB 67 BF D9 15 FE
 21 9D 6F 21 65 DC F8 C3 FD 29 A1 0C 8F 2E 99 AE
 FF 8E EF 49 8A 0F 9A 9E F3 1B 35 4C CE AB 71 43
 CD 40 D9 E5 04 FF 28 7B 8F B3 87 99 11 B0 B9 04
 C3 A7 DE 11 41 D5 0F 8D 57 B8 59 93 06 80 58 23
 6C 2A F4 64 0A B8 A6 FA BE 3B 8D 8E 28 90 6A 51
 3C B4 B8 AF 0E F5 DE 4E 46 DB 43 A9 B3 18 67 B7
 DB CC 12 31 E9 EF 20 FA 87 15 26 0C 4F 59 D4 E8
 8F 49 98 F3 0D 54 C0 54 E4 26 BA 0B 92 F1 7A 02
 1A 0A C3 E5 B4 39 54 94 97 D1 9B B6 7D EE 50 A2
 49 85 F3 79 CB 13 F9 04 74 6C F0 8B E7 92 4B 84
 3E C4 1B 1D E3 85 FA 3D 5D DF CC F7 85 0D 01 52
 6F CF 6C AF CE 78 85 1D D1 F8 BD 9A 8C D5 E1 93
 A8 DE 74 6F 34 83 54 17 80 1D 24 17 9C 71 3A A5
 CF A6 FB 3B 05 43 78 06 03 1B 74 69 D0 15 53 27
 A5 41 7E F1 CB 02 3B DC 38 03 FE 8F 36 CA 5E 55
 A6 9D AD 74 E1 BB 39 70 38 28 03 05 B1 A1 81 C2
 C6 B0 67 85 8E 90 53 FD EA 7B 54 BC 16 2B B1 FC
 93 89 E7 14 6C F3 88 82 EF D4 78 BF 38 E7 BE FC
 43 BC F9 E8 A0 BD 7B C7 D5 44 B8 C9 C7 70 2D CB
 A2 79 A3 8B ED 2A E5 B9 44 DF 2D 1E 41 F6 D3 1E
 AF AA E1 83 62 A8 0E 4D 9C F4 67 82 79 9E 40 B1
 87 05 85 E0 F9 DB 23 69 54 6F 7E 0F DC E8 BD D5
 01 88 28 9C CA D9 A9 42 50 F9 42 CA 3A 4B FF 5F
 09 FB C2 8C C2 B3 39 77 5D E9 25 5B 1C E8 E0 F0
 D4 35 41 D4 F6 CB 74 78 54 72 6B 67 5A 35 BC B7
 E1 92 80 D2 0D BD 7F 93 E4 B3 D1 D6 8F 9B 0C 7A
 B1 6F BA 36 0A 0B 6F FB B1 A8 C6 AD 0C DE D0 08
 C0 8E A0 C8 22 2A 25 A4 FB D2 11 E1 CB 93 99 FD
 E0 7D 2B A2 C2 59 0C 7E 4B C7 D4 10 D5 66 D6 1A
 0B 14 27 4A 0F CA A8 6A 76 AA 71 6B FE 05 4D 97
 AA B4 4E 50 F5 85 45 CB E1 4E 99 B3 C6 A2 F7 2E
 5A C8 22 DD 77 F1 6E 97 38 AE 2C EB 51 69 4E D2
 2F 95 0F 50 09 6A 73 78 A8 C8 CB 49 30 9F CC 9B
 85 41 C4 24 60 B3 A5 0F E2 CF 5E B9 D4 F2 14 FD
 03 B1 64 09 D0 5A FB 69 28 1D 97 EF 8E 9D 23 F3
 BE 91 06 88 5F BD 72 65 5B 61 BA 71 E3 13 80 D9
 2C 72 56 29 F6 08 C3 8E E8 A7 A0 FF 92 E5 67 EB
 37 04 E2 3B C6 9D C0 45 18 26 53 4E D6 CD 5A 18
 7D 5A 1A D2 5C 52 F9 5A C3 29 90 B8 B2 2C 8A F6
 36 A8 90 0E D5 6F E9 BF 90 EF A0 36 F3 A8 35 08
 61 C2 4C CC 27 AE 14 75 C2 89 EA 6D E0 C4 07 E5
 82 89 37 71 A0 15 9B 5D 67 47 6A D3 0F 2D BC FB
 DD 74 24 B7 94 B5 34 3F 6B 0D 98 EE 2F 65 60 C3
 F9 5C CB D3 D0 81 83 6A 27 01 BC 84 10 9F 08 90
 B9 F3 6E E9 7B 5F 6C 16 2B E6 42 11 35 D0 F5 26
 27 A8 84 4C 69 7F E0 58 E1 59 3F DF 8A 8D C8 0D
 D5 3E 97 C4 17 9A A1 08 D5 FD 66 80 29 02 85 EF
 B6 F7 7D F0 A6 FF 2C 82 E3 13 70 CB 43 58 E6 0A
 7C 62 EA 40 C2 49 E8 AF 30 C1 62 8D ED 18 5A 46
 20 03 48 0E 1B 9C 92 79 B9 6B 20 0B 2E 77 5F CC
 57 1C 96 67 A7 4E 5D 61 F8 29 C9 53 16 C4 0E 07
 89 62 C3 18 17 AF 0B 66 D2 0B B2 08 41 65 48 45
 11 0A DC DA E7 D4 86 19 0E F0 8C 86 61 B5 3B B7
 B8 0D BC 1F 03 17 F3 BC 05 04 F3 BA 08 B5 81 F2
 98 C7 EF E4 70 49 EA 49 5B A2 2A 4D A4 D3 A3 9B
 05 0C 9A 0A 67 38 0B AD 3C 04 66 D5 CF 37 09 E7
 B5 23 89 57 69 36 5B 1C E6 DC 2B BE 8F AA 01 45
 FC EB 8D 0B CD 60 DF 98 14 AF F2 2B EF 9E C6 E2
 90 3F B8 01 CF 66 5B 8E 85 BF 95 69 36 0B 53 02
 01 45 F2 39 6B 64 67 7D 08 31 91 5A CA 94 9D 88
 21 63 33 72 E9 85 A1 F6 04 FA 5B 5C 11 8F E5 8C
 EA F4 3F AD 11 28 CE 79 7F 7B CC 4D 2D 30 42 A1
 2B 7B 04 18 92 70 20 A4 26 15 36 72 9F D0 1B D2
 D4 3A 18 55 00 E4 10 E7 2D 6A 79 9A 6D ED 1C BE
 AE 0D D7 A6 2A 19 B0 13 56 F7 53 24 08 12 7F 7C
 1B 61 CE 4F 77 AA 96 D5 D1 9F A2 0A FA 66 78 15
 CB 7C 01 D2 FD 29 B1 49 EC FD 8B 01 B7 70 1F 1E
 0C 1F 92 0B 27 33 93 DA 9E C9 D1 F1 C7 7E 49 29
 D5 59 90 A0 3C 02 31 A1 48 68 7A 4A AA 75 32 5C
 AC DC 27 14 26 7F CC FB 96 A3 C5 8D EE 18 9C 2A
 F3 C5 D1 22 71 59 CF 4B 23 43 D4 9E EA 49 86 D0
 FB 8E A6 7F 52 68 39 98 CD 57 0E 9E 46 B0 2B 70
 B8 B7 23 5D A7 BD 20 B9 21 02 16 98 89 CB AC 8E
 FB D6 A9 87 6E CD D4 B2 12 2A 37 FC B3 1C 84 A8
 D3 AF 69 8E 6C 42 33 1F 61 0C 49 3B 9B A0 F2 D3
 E8 E3 B9 32 F9 2D 48 60 A6 25 20 6C 0E 81 8E AC
 BB A9 8E BD BC 68 13 B4 EA B6 54 F5 42 11 FB A6
 27 EF 11 79 66 AE 7E 37 4E B2 4F 94 99 D7 26 94
 F9 C9 67 DA 37 C5 26 43 4D 08 AB 5C AF 75 77 5F
 3C 1D 62 46 64 8E A1 94 AA E1 6D 1F BE 63 03 96
 AB 01 DC 68 85 22 7D ED 06 88 BD 1A 7B A2 94 2B
 2D CD 94 85 3C 32 6E 3A F6 77 AF AD E6 4B 44 70
 C8 A5 94 B6 7A DB 9D DC 0D F6 CD BA A7 5E 4C 48
 B3 67 BD DD 73 09 C3 31 69 7B E8 5C A4 6A 99 EE
 EF C1 74 AF 9A EA 2C 52 83 07 56 59 27 62 7D 85
 20 7E 95 54 46 BB D3 35 28 C3 2F 0A 17 A0 4C F8
 A8 CA BD F7 48 62 77 C8 90 A2 99 B3 47 58 4E 6B
 1D 18 93 F7 FE 52 FF 65 05 60 44 B7 B9 34 61 5E
 74 C1 E4 E6 6F 4E E7 01 0E DA A8 0E B9 39 7B 75
 4B F7 60 6E 01 AA 97 1E E5 08 36 96 84 D5 3D 67
 8F 24 DF 43 A5 1E 58 9A E1 7E D3 C8 1A 51 C8 36
 BF CF 15 33 FC 3B 1B 22 54 7D 9D E0 00 CE F5 52
 C0 CC 6B EA 21 FB CF AA 75 D0 2D 89 26 C0 F6 ED
 B3 90 B5 81 DA 4D 88 98 F1 C4 30 E4 15 93 A8 AC
 F0 95 22 67 4D A7 38 FB A1 43 29 A6 48 1D 97 EC
 7D 5E 7B F0 21 A0 E6 55 A3 D9 41 FA AD 33 35 AC
 64 0D 7D 93 4C B6 5F F5 A7 97 E3 03 CF CC 12 11
 D6 10 EC D8 51 CC F9 B2 24 33 CA FC 38 A7 2B 25
 E8 43 56 34 48 44 F7 30 E6 CD A0 8C 88 72 75 7C
 B5 C8 CD 86 B4 05 B6 45 2F 7B A6 39 08 DE 98 A3
 E8 8A 4C 43 AA 41 CF 12 23 7B 5B B4 D6 70 89 6E
 C4 E4 7D 8C BF 6E 4E 0C 36 8F 4D D1 76 A6 8B BF
 ED 93 AA F3 5A 66 E7 07 5F D7 37 07 17 8A A6 F1
 94 F3 59 A1 F9 3F B8 2D 0C E6 C3 74 42 E7 99 63
 EC 59 72 A4 1E 0A 88 57 E6 8F EC 3F 27 01 AA 64
 F5 D0 BF EC D7 21 4D 87 33 8A 49 0A 62 5A 86 A4
 9D 28 45 6A 70 9F B1 83 BB 9F 5C 7E 24 B7 FA FF
 CB 73 55 53 CC 56 07 A9 1B AD AA 0D E1 7C 76 05
 42 00 DF AA D9 16 2C F3 80 40 1D 1F 64 B9 FB 53
 B1 0F 45 27 E7 77 3A C8 A3 05 67 45 C5 07 99 8A
 B5 DE 8F E5 D8 0C D3 2E 65 6A FD 4D 78 39 63 31
 CC A3 07 42 41 BF 72 C5 8D 81 09 1D 80 74 3B 71
 CE EA 63 3F AC 79 78 7D 74 B1 46 16 24 06 C9 2A
 46 87 C6 60 C9 D3 84 51 99 1F 08 6F D4 26 11 CF
 0F 62 C1 6E DC 7A DA CB 43 65 99 AA A8 9B F6 39
 2B 35 94 93 2D 31 5D 02 0C 59 C3 07 EB B4 CE 02
 6C 92 F6 9F E2 4B 16 5C 40 91 1A 93 D4 7B F6 C9
 03 DE 73 48 6F 8E C9 45 5E 3A ED D5 96 29 B3 51
 66 5F C7 65 96 9B C3 21 84 7B F1 DC A3 C2 8A 27
 9F F2 97 CC E6 10 B6 0D 7E 84 49 9D CD 40 0E 9F
 09 0A C2 AA 4F 54 98 61 B7 85 B9 F5 C0 57 C1 EA
 CF E4 E2 8C A1 B2 2A 45 F5 BC BD 4F 32 FF B8 33
 C2 04 19 48 95 67 86 1D 47 05 29 F7 20 59 7D 31
 1E 3B A9 22 E9 8A 1F 89 54 33 1D 8A 0A 28 C2 B7
 4E A8 C0 49 6B DC FF 65 DC A1 88 81 88 6F 2D EA
 52 37 8E 50 56 22 BB 65 EA 1F BB BC 60 BE 49 40
 C8 5B EC D9 72 E5 17 06 0A 8A B9 23 8B 8A 7A 13
 23 A3 C4 48 73 48 7C 70 AD DF 11 A4 9D 5B F4 84
 F6 5A CF 95 F4 E0 E9 84 9A 76 73 1C B4 F8 00 77
 8E D1 45 4D 70 8C A1 20 DE 08 E5 16 CC 01 7E C8
 3E E8 30 84 B0 BA AF C2 41 DD DB 44 2C D3 F4 52
 B6 7D 5C AC 72 2C 98 B4 8A 78 82 86 CE AA 77 45
 44 68 94 6C C3 6A BA 54 69 0D FE 3F 3A 15 83 C7
 D0 0E E8 7A 25 2F EB 0B 46 77 30 62 C8 4D 62 16
 2C B8 3D 83 07 12 B1 11 13 55 6B FB 52 27 E8 AC
 6A 40 2A D7 04 54 ED 6A B1 6A 6A 5C 29 31 31 8C
 EA F4 63 57 50 0E 35 01 CB AE 27 3F EE 46 98 0C
 A3 9C 7A A2 9E 4C 0D 72 B3 62 D4 8D 43 73 A3 0B
 B4 9D 78 AD 08 A4 D7 3E 42 89 CA 49 46 41 D7 49
 D2 27 A6 3D BC 9B D7 50 F9 BF 20 81 AE F4 A9 EA
 F7 20 54 58 33 98 CB 79 BD 72 7F C6 12 D6 3F 6D
 B8 B8 0D C5 22 05 A1 50 BA 82 E7 4F 2A 83 05 EB
 2C 38 1D EA 53 5D 7C 52 F9 AA C9 95 C4 12 2D 61
 52 FE CF 37 95 81 68 18 FF 35 7A 8D 91 A9 EF B0
 00 5F 00 3C AA 66 1C F3 C7 05 BE 2D B3 B5 7C 68
 56 57 C8 65 33 C1 D9 89 C9 00 29 08 95 48 E0 DE
 2B 7B 61 99 25 5D 5C 42 C2 FC AB 65 5F 2A 1A D3
 78 9D 59 70 47 43 F1 AE FA 94 55 A6 84 EF AE 82
 A8 63 96 01 69 A7 1C B3 EF 30 45 95 5F 5E 3F 47
 D2 E7 3B F8 A0 0B F7 97 5B 2F 8F F6 92 A3 E2 0E
 14 A4 69 46 EE 85 B2 05 F2 1E FF 14 3F 0E 12 F6
 41 E5 19 CB 89 F4 EE 4C D9 F7 90 1A 98 AE CF E7
 08 A8 63 8B 94 51 D5 A3 21 74 BD 79 8B DE CA 15
 E7 27 13 4A 5C E3 C5 B9 00 90 32 D9 59 F0 97 B2
 43 08 D7 F8 71 CF 7F D2 4B 8C 2F 92 63 72 A3 24
 11 56 F4 FB 85 30 9D 65 80 C6 E9 66 BE F0 C9 65
 00 B6 13 C1 34 10 45 67 CC 09 B7 99 2E E8 90 C1
 2F 50 3E CF 99 EC E1 FB 3D E9 19 0D 09 E4 75 A2
 F7 F4 7C 5C 51 31 81 D4 D7 68 2D 00 F4 60 10 9A
 21 25 11 74 FB 40 64 8A F4 1F 9A 73 2E 09 0F F8
 76 C1 2D 90 03 36 3C B7 67 98 FD 45 5C E0 D5 DB
 AF CB 8C 6C F4 48 57 CF 04 1E 4F 0D 16 81 C7 B8
 86 23 71 62 6F 50 BA 5E 0F 7A C5 56 15 DE D4 3F
 C2 15 85 27 07 EE 52 E4 15 85 65 48 C1 5C B3 3E
 2C BC 0B 6F E5 FC 00 85 85 C1 2F 70 2E E2 FF 5A
 CB AB B2 13 A5 C9 97 6D 17 07 6C 61 40 06 4E D7
 65 36 E8 1B 1B F5 64 15 99 EF 37 8D 41 01 C7 02
 76 27 0F D9 5F BC 0A C4 92 FA EA 1A 01 A7 AE 1B
 7C 0F 06 58 16 36 1D A0 BD F9 2E 1E F1 F1 2C F5
 11 A1 D4 B9 4B C5 A6 61 95 D0 DA A0 10 68 13 AB
 0A 26 A8 08 E7 68 EB 89 9F 64 9F BE EB 1F 39 A9
 D8 CC 55 F8 ED 8C 14 E7 D1 7F FF 38 E6 1E FD 99
 E1 33 FA 96 1B A4 5C 35 FC FE 0B F9 8A D0 54 38
 F8 30 01 91 BB 2F 40 AC 3E C9 8E 1B 8E 6B 66 29
 2E A7 C8 31 50 FF 21 71 1C E5 E3 40 19 24 CE 08
 1E 71 CA D9 9B 78 42 E4 BE C8 52 09 71 EC FD B9
 CE E5 FE B5 0A 48 9F 8F 8E 44 8A 8C F9 55 0F 0E
 55 6D 6D 09 E1 60 76 E5 6B 5E C5 83 80 0D B3 2B
 9F AD E3 27 E5 90 60 AB 0F 8A 64 59 B3 25 34 53
 C8 EB 25 C1 74 7C 87 D0 6B 7A 8B 50 C0 62 92 F9
 9D 44 44 8F DC 2F 62 C0 9E 79 84 9B FB 02 BC 73
 03 B4 8F 40 DE 3F 27 39 4F 6E 7F 06 BB 0B 76 7E
 A1 21 B6 1C 65 D4 44 19 2C 88 74 AB 38 5B B5 32
 8B F3 40 2B 09 9A 06 E5 C9 29 61 3D 3E CD A6 C1
 17 FC 55 AF 26 BB A0 26 A4 7F 9C 35 16 33 69 1C
 7D 46 B0 24 90 3D 6B 9B 70 65 75 81 2F 50 C0 F2
 93 64 4A 4D 93 15 50 E4 9C 61 4D D3 8F 6D 10 62
 9B 52 1C E3 05 79 4D 84 5E 02 77 F9 4B 0B CF 5A
 BC 03 AF 6E 99 2A 41 BA 65 F9 3F EE F3 E0 59 CC
 62 A1 F6 B4 EA 19 51 36 98 41 25 A6 3C 5B E1 FB
 EC EA C1 53 85 4F 43 04 5B F1 04 83 0F F3 2E 05
 A1 FC 04 8D 63 83 71 39 0C 7B C2 5C 44 06 57 40
 5B 36 D3 F5 31 35 36 78 6B 06 B2 51 7D 08 8C D5
 52 FD 32 88 EB A9 17 D7 37 76 F4 BB 4D 23 07 36
 49 8F D7 3A 37 08 BD A2 AE 67 E7 DD A6 25 4A 9F
 83 A1 ED F4 9D A6 41 E0 27 30 EA 33 14 E1 51 BA
 62 32 0F BD 9B 97 09 E1 78 C8 E1 DB 75 96 84 3D
 29 EA 38 4A 45 54 57 C5 C9 02 01 D4 2D F6 98 A2
 D0 FC 77 40 38 DE 05 84 7C 0E 75 71 06 8C 9D A5
 85 58 B2 43 3A 75 2B A4 47 70 A0 B4 DD 51 92 05
 BD 58 4F 92 CF 75 09 69 BA EC AB A5 33 C4 67 7B
 E6 2B E9 F1 0E D1 C2 BF 40 55 CF E3 B6 CF D8 4D
 7E 0C 13 9C 89 6D 96 BC A0 9A 67 7A C2 32 00 4C
 D9 50 86 C0 4F 00 21 03 3C 9E B4 45 B5 6C 33 BD
 C7 0E 97 22 61 65 22 D8 C6 BD E1 6E 66 E4 90 75
 3A 86 7F 2B F6 57 D9 63 44 07 0D 3B EA 6E AC F0
 A0 BE 47 46 88 4B A6 95 47 8F BF 7C DA D3 9C 01
 48 39 CB A4 F9 94 A5 57 7E E0 D0 AA B9 44 D2 32
 73 D1 DE 22 49 26 FE 5D 02 0D E9 A2 C7 83 B0 DE
 96 E1 F1 26 1E 46 10 69 62 57 3C 94 36 22 7F 43
 7C 51 D7 01 E5 D9 AE B0 A3 9A D5 3F F4 E1 B1 B5
 9E 46 56 B6 53 43 4C 11 24 18 41 BB 32 37 5B 6E
 3E 63 5F F4 45 63 7D 3F C1 65 D6 75 FB A5 8F 89
 CD 82 4A 0C FF C7 39 27 E2 ED CE E1 57 B8 4D 6D
 91 B5 16 0E 91 89 50 4A 99 B9 64 5E 7F 3F 08 30
 3D 06 74 7F C7 7B 49 1E D0 1A 37 3D DB 68 37 4D
 DF 1E 2B F6 43 77 9B 94 BD 5C AA 5D 18 39 8C B6
 02 A9 BD E2 C6 6C A2 E9 A8 C2 EB D5 AF 80 DB DA
 12 6C 8D A0 63 4B 59 F5 30 18 34 75 47 A8 00 1B
 B3 A3 3E 85 5E BC CB 10 2C 63 F0 F0 FD 47 E0 92
 C2 32 E9 6A 3E 91 56 9C 08 B6 42 90 77 9E D9 26
 1E 99 40 D0 30 B4 89 D8 94 BA 09 A3 DF C6 00 23
 10 03 16 C8 52 31 CB 50 98 E4 45 60 EA BD 29 01
 98 44 EF A7 62 90 A1 DD A9 17 1E 12 7F 98 F1 24
 A6 B6 FA C2 F1 DA 3B B6 BA BC 62 BD 7C 15 F0 E3
 A7 BF E0 E6 5C 6B 9A E5 19 3B D7 6D 97 40 19 C7
 27 86 56 7F A3 D5 19 D9 EF 8D 23 3E B6 D2 6C 8B
 5C 77 E7 71 AF 42 5F B2 50 F8 24 38 BA 69 58 C7
 16 76 13 C0 F5 AE C1 8B C4 25 01 40 EE C4 96 41
 14 1A AB 9E 68 0C EB 0D 87 CC B5 63 0F 60 6F 1B
 1D CB 19 F9 21 DE A5 C7 C4 BF DC 92 82 BB A9 A4
 D2 77 5E D0 18 84 3B E3
* End 1858495318 3387080315