* LTspice Encrypted File
* 
* This encrypted file has been supplied by a 3rd
* party vendor that does not wish to publicize
* the technology used to implement this library.
* 
* Permission is granted to use this file for
* simulations but not to reverse engineer its
* contents.
* 
* Begin:
 D2 45 46 33 ED EC E5 C5 05 B5 20 8B 5B BA CE 1F
 22 52 A6 44 4A C7 CE 1C B5 FB 01 65 73 4E 5E 00
 88 1C 83 2A 9C 33 35 82 8A 91 46 E3 34 99 7B E9
 C8 3B 5C 19 FC F8 C2 B4 4C D8 B1 D1 43 4E 5C 3B
 CC 3E 23 AE C8 69 0D 2F 4D 36 25 65 C9 49 02 A0
 41 6B F8 9F D0 98 C4 FF 66 6C D8 77 0D 01 94 46
 F0 08 75 84 72 25 BE 0B 7D 20 3A 00 7E CE 9C CD
 4D 5E FD 30 B7 AF A8 D2 62 71 B3 26 D9 8D 21 84
 51 4C B8 9C EB E8 70 8E AC 76 68 3B 13 8F 17 2F
 E2 D7 38 8A 02 D6 27 D8 2C 96 E8 6E 52 7A F8 5F
 D6 9D DB F1 46 C9 DD 74 03 90 7C A5 B3 55 E5 5A
 89 FB 6E F0 CE CF CF A1 E4 4C 34 5E 07 12 CE C5
 9C 9A DE 97 84 85 BB 74 7A 0D 19 09 F6 0D 36 CD
 26 44 02 CB 26 38 55 56 66 87 8D 5B D9 59 90 7C
 B9 70 D4 91 8C BD 56 E1 4C 8D 22 03 9A 9D 28 F8
 2A 48 F2 5B 1C 38 B1 BF 27 84 AA 0B 10 07 AF 1B
 81 42 6E BA C6 D9 20 F8 D4 94 A7 83 61 04 72 12
 FE 36 19 49 6B 6E 49 59 EE 6E B6 8F 2B 7A 39 3B
 AE CD F3 3C 55 D1 3C 86 85 30 11 56 21 ED 0C 96
 1C DE 75 37 E2 F3 D4 CA 2A 0C 54 44 98 AF A6 E5
 ED 83 2B 07 69 C7 5A 60 FE 53 58 E2 2F E0 30 D5
 0A 61 89 3D E5 D1 6D C9 F1 2D 1D 14 9B 63 51 F8
 F0 6F DC 46 F6 01 0C 0D 97 71 29 CF 81 06 70 69
 C4 24 B1 FC 78 77 7F 4F F1 4B CA D7 40 8D 47 7A
 F9 34 1C 64 90 DA 4D F8 8B 1B F1 BA 9A 7B 1E CD
 57 E4 BB 31 A4 32 16 A8 9E 92 27 79 9B D9 21 30
 EF B1 02 05 D6 AF 16 FB BE BA 99 50 47 FF 51 CD
 D6 71 2B 20 A3 D4 99 07 4D CD 8B 42 21 8B 62 F1
 5E A4 04 E4 C2 9C AF 1B 35 0A 74 6C 47 DD 7F E1
 76 AF 78 CA 7E 09 EC 28 45 82 07 E0 8F 05 6C 85
 C8 C0 DC 9E D5 00 F2 E7 4C 48 7B 97 C6 0D FD 8F
 CD A8 BA 33 A1 37 B6 55 03 AE BB 68 FD 17 E2 45
 B3 25 67 1B 0A 1B F7 C2 33 61 62 E6 D8 6B 12 35
 44 6A F8 A1 A5 5A 62 16 3A E3 65 D2 C8 99 D2 A8
 A5 52 7B 9A 1F 40 C9 77 FB CF 40 4D C3 6B F8 56
 66 DD D8 F6 62 95 DE B2 35 F0 7A BE AA 27 2B 36
 22 C8 2C 56 76 B9 A5 2F E9 98 46 58 2E 94 E5 15
 F4 CF E1 66 96 2F D5 D8 B5 80 C3 A2 C3 D3 41 59
 C6 E2 88 AB A2 DF 9C 3C 46 6D 73 D9 53 16 30 15
 1B CE 56 69 C5 D5 25 84 1F 32 C0 81 6E D1 1A 0B
 BB 5B 4E 95 06 38 EA FA 4F FF 87 BE 48 F3 B5 D8
 B3 27 00 CD 73 25 D0 71 FD B0 37 47 79 00 CB ED
 AE 29 8F 30 C5 7F A9 4F 41 E2 CC 12 BA 5F 6D EA
 3C 67 11 05 F2 00 B4 48 3C F5 52 D5 83 93 D9 A9
 42 14 7C BA 2E 20 F6 7A A4 6E 02 33 85 DE 0C 38
 CE 0E 25 D7 A3 15 80 A0 02 38 A6 E3 FC 39 0E 1A
 D7 DE 8B D2 4F 55 43 A9 A6 47 9C EA EE 17 18 F7
 FE EB EB 68 35 CD 41 14 14 17 61 05 17 B1 80 E3
 21 8F C0 C3 19 21 62 0C DF BB 59 56 C7 E9 30 C0
 28 ED 9E 05 85 CD 69 B4 5B BE 70 F0 B5 FA 53 83
 49 87 7B 33 85 36 7F 66 D6 D4 4F 27 87 16 DA F4
 62 5F 1F AD 3D 9C D0 02 0B 57 43 27 4D F7 F9 FE
 B1 44 4C AF 0D FF D4 A4 AA 42 E3 58 92 F1 38 E4
 B5 17 A0 F6 92 1D 20 F6 D8 9B 63 B9 92 83 EB 00
 F1 E7 12 7B 08 FE A9 07 95 28 0A 54 63 CB 15 54
 7A F3 B3 2B D6 75 B6 30 7D B2 8F 30 6F 4B EE 2F
 FE B2 53 4C 15 9B 40 5A 6A 64 80 66 09 D5 E3 02
 D7 BD F4 D0 3C 96 A6 CC 1B C1 C0 33 A7 07 9B 9A
 50 32 68 D1 48 AE 10 66 A6 93 56 C1 37 31 E0 86
 87 63 8B AC D3 38 F8 85 45 07 29 04 3F 6F 4A D1
 A5 16 41 9F 54 40 80 C8 37 05 33 21 2C A8 B4 85
 DA DF EA A9 D8 6D FA 1E 24 9C 28 00 02 47 03 21
 AF B9 78 BC 84 E5 E7 4E BD 6D DE FD B3 00 2F D0
 8C 9B F5 A2 16 8E CD 24 AD E7 B6 80 EA 4D 10 5E
 6F 7A 38 4B 8C B3 50 C7 6C 89 E4 06 8B 37 0B 04
 3E 2A DC BD 25 40 AE AC 51 EB E0 4D 9E DF A0 FD
 90 8D 9A 9F 1E AA CA 6B 93 09 12 76 6D F9 C0 DB
 51 C9 66 39 6B 94 ED 3F E2 A2 E2 CA 55 74 42 72
 67 F3 CE 63 9D D0 B7 9E 8F A1 F6 96 E7 E7 C6 8E
 02 BC D2 20 27 22 45 94 A1 67 58 41 21 A3 3E BD
 49 0A 86 49 D6 70 A9 4C ED 28 9A DD 7E 08 F5 3F
 92 B2 8E D5 94 66 14 2A BF CD FB 89 D5 74 49 CC
 56 33 9D 08 72 AB 96 D6 F6 6C 13 EE 45 45 85 7B
 46 FF 12 29 71 95 88 91 A0 A9 F7 46 C9 7B BD 48
 DD 55 D9 D2 E7 C3 36 3D 2D 5B 75 8F 55 6F 8F 13
 33 21 A9 99 87 E3 80 F1 21 50 68 26 A8 D6 98 AA
 7B 89 CA EF B0 E3 A5 42 C4 5D EA AB 95 45 B1 C4
 DB F9 AD 43 ED 76 4A 08 D0 23 D7 38 40 95 32 AD
 6B 5C 58 2D 23 5D 92 05 5E 12 96 63 92 6F 60 D7
 C5 61 F2 08 B3 E4 D4 27 A9 09 0A 30 4A 19 34 55
 9E 39 34 D0 41 CF F0 7E DF F4 0C E0 52 6C 89 B2
 0F 97 55 E5 B4 1C 1D EE CD 6E 4A 6D 89 4E 3F F7
 1C 46 27 F2 42 9F 42 03 0D 59 70 63 6A 5E C4 2E
 EA 63 F8 7B B9 26 E3 60 34 A4 0C 54 D5 CC 5F 88
 02 36 CA 6D 39 03 A2 06 A8 05 AF 5A CB 48 17 96
 9E 83 96 D8 9F 10 A3 4B 66 B1 44 31 56 46 E1 D5
 AA AF 3F B0 FA 0B B4 1D 4D D4 31 F8 2D DB 9E D1
 62 0A 90 91 99 9D 23 CD 6B 80 3C 66 85 7A 24 84
 30 EA DE 8D CC 41 6C 52 A6 35 E9 FF AE 47 EC 45
 84 80 BF EE 95 0A 41 4C 37 55 BB F5 11 5A DC FF
 8F 56 F6 1D F7 AF 8D 86 B5 6F 85 4E 36 C7 87 19
 2F D3 6C B7 86 D2 3E 49 F6 DB 8F F3 86 7A 8A 64
 32 DA 65 17 0D B1 FF 40 6A 06 92 87 79 CC 63 5A
 60 14 A2 4E CB 64 56 36 52 F6 4B D4 67 F5 F3 00
 4C B4 0B 36 25 3B 0E 12 AE EC 52 74 26 2E E7 A3
 3B 39 C1 73 30 41 0A 6C 37 88 B4 73 E1 04 E6 C7
 92 E4 AB 87 12 4B 74 C2 7A 91 A7 19 0F EF A2 51
 0B 35 28 E9 55 98 5F C2 ED EE 69 58 53 06 9B 53
 86 F9 5F 79 AF 1B BD 19 10 70 1C 81 97 EF B4 E9
 50 CC 47 82 6F 3A 34 44 1D 3F 27 94 CF 11 82 4B
 1E 1D F3 19 DD D7 AC A8 85 A1 97 69 80 55 DC D2
 C4 C0 32 10 A7 D1 8F 77 BE 61 F8 02 BB EC C5 12
 11 0A AD 4C 0D 50 F7 E7 FB B5 DB A0 0E A5 78 16
 49 DF 5B D9 3F 3B 57 DF 35 BB 83 F0 56 29 9F 0C
 2E D9 AD 02 39 CA 98 46 37 64 DB 04 4E CA 3C 7D
 07 4A FA 3B 6E 12 12 01 20 B4 7E C0 0A A1 03 43
 A9 43 2E 8B 48 6D A3 03 8B 0C 50 4C 65 DF 80 68
 20 E9 A5 09 45 51 2C F0 B9 D4 CE 25 EA DA 58 97
 3F E2 2D B1 2F CB 92 6B A6 E7 67 F3 C7 01 C3 BD
 2D F9 E7 3D 6E 2C 38 87 88 35 4E 60 55 BC 96 59
 F2 29 05 32 CF B4 A2 BF EA C8 5F 7B 85 B8 FF 16
 58 74 5D 79 97 05 EF 47 7B 34 8E F4 8C EF 90 9E
 9F 71 BD 15 58 3D E6 4E 83 AC CE 9E 8E DB F1 0B
 07 45 86 FE 72 DA B1 4E 9D 11 4A A0 89 FF 28 17
 B0 6D 81 EE 86 3D CB 8D 28 8B 26 74 04 06 C1 79
 19 B7 CF F7 16 E1 DC 2C 85 86 31 55 F4 08 3A 4E
 A5 4E AD 55 84 F8 3A 68 F9 C0 71 28 E9 86 E1 11
 A2 7F 2A 54 20 16 E5 00 E9 EF 27 5F 21 1F 1A FA
 81 65 FC C5 0D B4 96 98 0C 52 96 6E 2C 39 73 D4
 63 38 68 B9 EB E3 7D 3B B0 45 B7 AB 30 A7 06 7C
 50 8B 72 FD 64 FA 15 9C 95 A4 D5 53 1B 2B 6D D5
 ED 31 52 E3 7A AD D2 A7 55 09 71 DF B8 8C E8 19
 88 6C 29 93 EA E9 09 42 37 D4 BA B6 1D B3 0C 10
 78 2F B1 03 3E 6B 0A 2F B9 AB 2C 6B E4 72 F1 6F
 8F 98 22 45 3C B1 45 05 E0 60 59 0B 5D 14 E3 2B
 4D AA D2 96 C1 F2 9A A6 F2 CF 31 98 C4 EB 2B B0
 14 E8 5A B8 2D 92 A8 3D 6F 1A 63 6A 18 7C 6F C3
 43 46 14 86 69 DB F4 AA 0E BA 17 9F E5 49 8A C6
 79 43 4D DD A4 54 4A 2A 44 F1 BD F7 40 27 3A 9F
 8E D2 B6 E3 9B 68 4C DD 8C F2 4C E8 D6 4C C7 BD
 ED C3 A0 87 71 FE CE 2B 8A 35 CC 0E 5C B9 39 80
 FE 95 14 15 85 9A 53 65 50 91 5D 81 04 34 C9 09
 16 EE 07 EA 5F 55 FD 2F D5 76 CE 77 83 57 E0 DB
 AE 31 C2 5D 70 B5 13 17 BA 6E CE DA A8 66 30 0D
 27 75 8E 44 A3 97 B1 3A 22 F0 04 A3 D4 65 9C C0
 04 DC A9 93 A6 1D 61 2D 1A 95 AB 82 12 AD AA CF
 8A C0 FE E1 65 20 CE 1A 22 25 23 FA 3B 39 BE 3A
 28 B6 4B 66 5D 1F 22 B2 75 69 DF 41 55 4B 61 69
 A2 F6 65 25 A3 DF 95 0B DD 16 3E 95 1D 69 89 F0
 5E 82 A5 0F 91 61 1E 72 FE 58 6D 93 95 9E E7 7D
 2D 28 A0 3F B7 D4 29 2D 87 70 43 61 0E D7 94 3E
 D5 3A 5C 2D 6F 15 5F 62 61 49 1A 84 70 97 C3 BF
 BB 8E 3B A8 60 BB 2B 99 0D C9 78 65 B4 03 F9 F9
 1E 9D 71 E7 C0 8E FD 56 D9 DB DE 0C 2F 21 CE 0E
 F8 7A 42 8D B4 CC BC F7 7C 02 97 84 1A D4 2E 23
 C6 E9 63 EF D9 37 50 FD 91 E5 2D D8 D6 4C E2 01
 CF 4B 5C 11 5A 55 9C 2E 07 48 64 42 4D 3F DB 69
 BF A9 4C 18 0F 8E 47 51 86 37 90 ED A1 4A B2 61
 CB 86 B7 C5 9A F6 14 CF 03 D7 1F DB 92 99 AD 7D
 D4 E5 A0 6C 30 68 7F EB 33 05 B6 12 2D 8B E6 89
 DD ED 6D 7C 1B 13 82 7A 8E 23 D0 24 92 BF 38 27
 02 F9 C6 6B D6 B3 F6 5C 95 DA 22 96 C8 76 C8 5D
 24 D9 A6 E5 65 F0 84 1C BB 38 BE 8F 3C 7E F0 EE
 A5 E7 DB CB 8D 7B 5C 47 E8 4B 0C F5 71 19 16 14
 59 FF 88 33 7B EF 3E 57 6D 56 AB CE 76 F3 07 A5
 9A C4 40 94 26 AF C4 84 6F 64 7A 9E D0 28 53 67
 74 36 D0 05 E9 66 13 A0 BD 7F 91 82 33 03 E4 F8
 34 9E 90 12 D2 83 AB 58 64 7E 73 59 11 A2 A0 AE
 7E 36 F4 FD A6 60 84 05 C8 C0 7A 60 70 71 13 8F
 4C 03 A9 0D BC F6 96 83 61 AF D1 BC 10 34 B0 93
 C1 8C 0F 72 3B 76 7D 59 45 A7 2A 5D 11 5F 00 CF
 2C 28 38 1A 49 37 4D E5 DD 0E 75 6C CD 2E 3C 85
 66 75 2F 3D D1 18 0D D4 7A 8B 27 37 8A 63 3C 31
 68 20 EB CB 14 53 A5 0B B3 9C D9 92 D6 FE 1C 88
 6D 47 73 89 BA 12 D1 1B 66 AB 7D 47 CA E7 E9 56
 9B 30 83 C8 37 5D 4B A9 0D E1 F7 9A EC 71 41 27
 A5 6E 05 64 DB BE EE 09 08 83 3A C9 0E 1E 0F DC
 15 F9 2B A1 A1 82 8B 67 32 52 6C A5 05 C0 9D 81
 53 60 86 79 DE B2 10 99 66 C8 45 11 BA 2F 0A C1
 93 ED 65 77 54 DE 80 90 DD B9 B2 3D 18 68 CD D1
 C2 1C FF AE C7 9D 11 85 AA 04 1B DF 18 6B F4 9B
 29 3C 53 52 D1 F9 EC E7 79 3E 59 F8 2D CF 49 8D
 71 20 17 2F CF A8 1E 04 F7 D1 36 15 B5 52 0D CF
 5D FC BC 2A 8D 30 95 E0 19 3C E3 50 57 50 8D C8
 3C 08 7A F5 A4 9B 4D 44 87 DE 31 F6 BD D2 B2 F1
 EF 57 DA DE 2B 4F 1D A4 36 8E 79 B5 0A 63 BC D1
 20 65 20 1B D8 24 0E 7E D3 3F 00 F0 71 83 E4 46
 C8 E7 6B 38 CD 48 78 85 94 D3 E9 F5 1D A9 99 20
 35 5A F2 FE EC CA E2 83 E2 E3 BE BD DD E6 58 72
 68 89 8A FE FF 37 9D CE EF BC A1 6B CB D9 76 4F
 CC 94 5F 0E 82 FE 45 B0 4B E7 89 BF BA D7 26 F6
 D3 24 33 8C 8C 32 77 8B D7 3D 35 4F 0F 81 37 39
 08 D4 62 2C F3 7E EC 3B A0 B9 C5 D2 B1 83 B3 C0
 7F 54 54 26 C5 0A 3C 2A EC C8 30 56 B4 41 D2 F6
 E8 CD 79 BB 51 23 99 4E C0 D5 17 29 6C F3 B2 E4
 68 C8 0F 12 EE 45 F6 E1 E9 83 C2 91 83 4B 50 5D
 E5 88 C4 25 92 BB B7 7F 2C 0F 2A ED B5 E8 A9 BA
 9C 7B CD DA 63 90 A3 71 10 82 B2 C7 A8 67 8B 14
 2C 28 C5 6E 58 DB 3B A6 76 87 CA FC 5A 93 AF 28
 AB 7B 18 B5 CA 21 29 3F C4 9D 02 DB 5F EB C7 E5
 37 95 04 DF EA 0F 67 B8 36 E4 BB F5 2C F3 16 F7
 84 A3 15 B5 66 F9 06 63 6E 6E 9E 7B 69 08 4F 89
 F0 6B B3 68 5A 7D 10 12 BB 57 19 B6 92 6E 43 F1
 0E F4 7B 24 88 D5 09 6C 3B 6F 88 C5 BC 1A CC 4D
 1F DC 34 E5 76 E0 65 D3 8B 4D 45 69 90 69 F2 2B
 0B 44 AD BC 2C D6 A5 D8 03 EB 10 ED C3 10 E0 3A
 EF F0 C4 A0 12 C4 81 A7 24 B7 D1 9F D1 A1 A4 9C
 49 5F A0 AE AA 25 49 66 2A 7A 81 A5 BE ED 86 B8
 07 D2 AF DC 13 AA 77 F2 66 F5 76 27 B7 9E 02 43
 DE DE 01 89 08 EB FA 9D B3 C5 68 6A 7D 8E FB DE
 77 5A 78 D0 37 00 28 87 96 16 C1 B6 18 11 91 60
 84 00 0B DD CB BC B7 05 A7 AC 1F 4C 64 E6 85 B7
 AD BA 01 23 1C BC 39 1F 2F 33 C6 75 B7 5B 5C 4E
 C1 EB AA 43 7E 2A 16 0E 8E F7 88 2B B6 5B 24 DD
 3F 79 EE 11 B9 14 33 C3 9B 50 E6 FC 90 7F 46 F5
 C6 DF 44 DF 21 A5 F2 B4 AD E6 54 6E C7 76 2A 0E
 48 C1 3C F5 26 FA 0C 28 93 6F 61 A9 88 33 9F 23
 90 5D D4 C6 09 C6 71 F5 DC 30 01 93 77 07 AC 37
 57 75 81 0C 27 23 EA 8C 45 E0 12 22 EE 31 5B A2
 0B 79 9F B0 7D 1B 5C B3 BF 22 71 2F 59 A1 37 1F
 A3 B9 5D 4A 13 26 5A EE C3 F7 69 1B E6 B9 63 9F
 9A 90 F6 B1 98 C1 60 8C 5E 47 D0 78 6E B6 B3 13
 FA AB F7 24 9D E2 9D 77 F2 A6 3B CF 6D 85 16 28
 3D 96 D5 35 47 B8 54 F4 3F E1 DE A8 0B 9B 51 D4
 7E 82 2A EE 4D A9 52 8D AF 5E 4D FB 77 DB D5 B5
 86 A9 57 FF 2A 0B A9 64 04 F3 D6 D0 F9 4B F1 3E
 CD F3 3C F9 83 40 FA 81 B3 79 A4 AA BD 74 2F D5
 07 2A FD 8C B8 5B 34 52 1B DA BC C3 13 2A 54 32
 44 0A F8 B6 BB 53 1C CA 5B F9 18 4E D4 C0 5B A0
 B4 6A 5E 63 5F 1F C0 DA 62 32 0E F0 4A 49 53 14
 47 AB A1 09 2E 8D 13 0C 70 C2 64 CD F2 15 A2 D4
 56 5B A5 51 E2 1F 9F 10 B3 E5 12 E4 8A E1 38 26
 99 DA 05 E5 F8 0B DB EA 4F 1F 7E 4F 77 1E 43 DB
 25 56 34 BE E6 4F 23 1D 57 A3 A3 F8 A3 D5 07 BF
 80 11 F1 ED 60 A9 7F 88 DF 04 31 03 DC 37 70 B3
 67 AD D8 E3 AD 07 23 24 54 E8 B2 EE 9B 0A 41 F8
 2F 5A 51 61 55 9D 15 DF FC D9 2E EB 13 6D 6A 3D
 A9 AE 93 51 28 7D B6 A6 52 17 46 4E E1 84 F3 FD
 F3 DF B0 41 18 07 F6 BB 07 35 04 AC 32 0F 52 C9
 35 DA FC 12 40 04 45 AB B2 AE 97 C4 97 50 EB 36
 14 F5 2D 18 30 FC 68 AE 0A 11 EC 9F 89 A3 41 47
 C6 C4 3A A2 19 E0 7E 7F 12 DE 36 5D 1F 52 03 BE
 75 74 05 26 7D AF 67 17 5F B9 C4 6B B0 22 60 07
 30 60 AE 81 6C 22 3E 8E 05 9C 06 3E B4 9C 73 2D
 CC 3E BE 4C 81 FE E5 94 EF 2D FD B3 5F 2B 25 2D
 1D B9 2F 4A FF 2D 4E FA B3 C2 17 B0 1F 94 66 42
 4E AB 04 F2 62 E7 B8 63 4D D0 57 AD FC 25 A7 49
 01 0A 33 E4 73 62 B2 F1 40 5B 59 34 35 4E 8C 54
 39 AD 24 2E A1 79 F7 94 09 66 12 CE C2 88 7F DB
 9F 62 F3 64 2C 19 77 A7 6A 8A 06 D8 5F 0A AF 74
 30 DD 3A 6A 60 C3 3C 93 88 4F 65 C9 66 76 E0 E0
 B0 51 1D 1A 5C 68 18 A6 B2 C6 B2 DC C0 06 D9 05
 3D AE 08 D4 4F 24 42 F4 FF C5 8B CF 64 CA A8 E4
 D3 21 E5 AC DB 3F E6 BE 19 2C 1E 97 A7 04 8C 23
 58 65 C9 23 66 68 64 0B 62 F6 6E 7E 1D 1C 10 EB
 A5 75 AB FC F1 B5 71 CA 38 88 07 9A F9 B8 1F 2C
 99 D5 81 D2 93 29 FD 78 7F 72 D7 58 09 89 01 7B
 BE 04 11 1D 11 3F 2A FA 2F A3 BF 9D 04 17 A9 05
 6F 2E 91 19 13 3C 5E E4 E3 72 32 90 6A 74 33 C2
 BC BA 29 3E 70 26 34 9F 31 E6 E1 72 63 1D F2 72
 13 0F AE D6 95 B1 4F 52 5A 57 7F 9A 4D 68 56 F9
 0A 09 62 49 75 A0 2F 2B 77 AA 4D 8B 3D B9 F2 3E
 43 D9 10 4E 2E 46 99 F4 1F D0 28 2E 5C E8 63 20
 FA 06 7A 65 4A 35 C9 DE 25 19 44 59 48 75 57 13
 85 E7 0A 18 B7 9E 21 4F AA 60 81 CA 46 0B E9 93
 08 1F 52 9B CF A0 0A 1C 55 FE 12 93 B6 17 8A EE
 4A 81 19 B3 C9 94 05 D0 62 41 20 0A 6C E9 BC 8A
 FF 85 1D 5D 97 F7 2A 38 D9 A5 9D 9B 17 33 E1 54
 43 57 D6 47 1B 9B 69 FD 6B 1C F2 AC 06 05 B7 A3
 65 B3 AC CB B6 F9 4F ED 96 94 9D 40 F8 91 21 2E
 ED E8 F1 50 EE F5 F2 48 C3 0A D9 A0 51 33 E0 3A
 A7 B2 7B A0 AD 7B 71 36 8B E1 09 24 56 52 3F 53
 79 8B 71 11 7F E2 1F BE 96 9B 49 74 2D F1 1C FA
 76 CB 24 F6 15 2C 8E 89 54 C3 FD 4B B7 24 87 16
 10 80 4B DA 62 B6 67 D5 38 95 B8 18 D3 04 C8 97
 86 BC 58 34 A9 C4 D5 83 0E 15 EC 43 A5 53 F8 A8
 B6 3B 5F 0B 25 CD 67 5F A5 FA 30 CD 9E 1D A2 EF
 11 89 75 48 62 B3 20 36 59 A7 07 F0 EF E6 4D F7
 8D AB B2 11 C7 B4 1B 53 E1 73 29 A5 D7 CC F1 02
 05 7E C2 D3 3E 19 83 51 17 7D 28 5E 74 81 7A 3E
 CF 6F BA 24 2D 3C 94 BE 7A 7D 07 10 17 C8 A9 DF
 97 14 37 20 AC FC E1 EA AC 46 5A 6B EA A0 1B 8D
 D6 AF 5D F7 2F 82 E7 79 69 48 B7 D3 55 DA B5 BA
 C3 1F 60 E0 20 6E BB 90 13 E7 8F CE 7E 03 60 7A
 7F A7 AC 27 3F A8 DA B9 AB 38 64 7F C6 B0 96 20
 90 EC 28 39 5D 80 B1 EB C2 B1 68 5C FD 79 BE 62
 B4 FA 4E AC 17 AA 9F 57 11 56 63 AE 4D 38 39 62
 C1 24 E9 78 AD A4 92 7D 1D 54 5F 03 49 23 5B C7
 40 6E E3 55 52 97 A2 FE 5A 2C 92 0D 94 CF AE AD
 A9 5F 10 FD 05 C2 D1 8E 07 BE C6 AE 4B EE AE 53
 B8 15 7F 4E B0 5C 2D C2 D9 A0 5E 73 FF 67 3B 14
 DD 0A D5 33 55 BB 13 80 C3 12 AD 50 ED 23 CB 52
 46 72 6F E9 80 32 03 08 30 93 7A 24 8D A0 FA 48
 B8 83 29 14 2F 69 CC ED 27 1C E6 04 87 5E 3E DB
 40 9F 47 70 D2 41 36 A3 38 3E 5B FE B3 9C 79 DA
 A6 77 0E F5 5D CF 57 9E 4E 8B 40 E0 ED 7E 3A 8B
 C1 67 BD 77 15 B4 64 0B 8E 4D EF 64 CA 97 74 4D
 F6 0D 11 7C 3A 32 59 19 F4 07 4D 89 74 7E 99 B8
 09 F1 25 28 28 6A AA 6A 4A 5D 15 25 F8 D7 A3 72
 D2 AB F2 03 50 94 47 76 E6 EF A1 14 6C 78 2A 0B
 2D 04 85 B0 8E 12 91 DF 82 62 92 19 DA 78 B2 E2
 39 D7 04 6D 09 EF 40 65 7A A1 C8 E8 8D 29 2C 8E
 0F BF 60 6E EA A9 F9 93 94 D7 AB 03 04 9A EB 2A
 D3 B4 E7 BA 7C A7 20 BA 97 97 FE 9F F7 51 8A FB
 34 4C E7 E7 36 E3 DD ED 92 A0 D4 E5 3B 76 94 D0
 0E 2F CF 00 E2 62 8B F6 1D 44 DE 1B DC 3D 7B 18
 19 E8 1B 69 01 96 73 16 BC 46 E6 70 07 AA 49 CD
 3D EB D7 20 6D 02 32 2F 85 6D 4D E3 AD AD 0F 2E
 BF 70 69 BA BD 7D 5E 92 8C AA BE 43 E8 D8 B4 CD
 24 5C EB BF FE 48 AC 7D F5 35 38 1F A2 14 FC BC
 54 37 68 B8 3B C2 33 11 C4 EF 7E 18 13 49 7A CE
 E4 70 F6 2D 47 24 61 71 B2 5D B6 B1 88 9B E9 33
 95 31 FE DD D2 B9 41 75 23 86 46 74 5E 74 D6 B2
 05 D0 76 36 AD 26 D5 C2 8F 3B 01 65 56 75 F2 E6
 65 BA E7 78 A4 5A 3D B1 9F 12 78 CE 4B 4B E9 FA
 2C E1 2D 64 0E 8D B0 14 C6 B2 D5 56 AD 7C 82 5F
 48 B3 1F E4 DF 5B 6D D9 3E 44 74 2D 46 78 49 B4
 43 36 6F 73 64 B2 F5 AC 97 F3 7E 89 5A FC 90 87
 67 66 D0 99 A7 73 75 28 48 62 FC B4 3E E8 51 48
 49 D5 79 B0 43 7E CE 57 BA 33 C4 68 A3 00 1A 4E
 9A 87 F7 DC 21 32 0C D8 F6 EF 18 8A C3 F1 EC 51
 B1 A1 8B F6 BD B3 3A 0B A9 77 88 54 BD 06 11 2B
 BF 2F 21 12 1A AC 74 A4 B4 58 2F A4 05 81 F2 54
 D6 D3 58 F8 67 23 15 85 8C A3 A7 11 E1 6B 5D 83
 B6 C9 A8 B2 AD 2F 1D 28 90 A5 FB 2C 87 2C 0A C1
 1C A8 FC 52 5D EB 0F EB 7A E6 ED 85 56 E9 71 DB
 4C 4D 0A B3 69 8B 46 5B 13 A0 03 55 B6 A5 D6 C4
 16 A7 5C FF A6 96 F1 41 BB D8 41 FF A2 43 53 08
 BF 75 B4 77 AF 92 56 0B 94 C8 38 87 3D 93 78 95
 C9 41 3F 2D E0 03 81 D6 9B BA FC B9 D7 89 9D 67
 F2 1C F6 D3 59 BC 1F 83 83 B7 16 CD 48 3C ED 73
 AD 46 47 01 2D AA 82 5E E6 C6 20 65 03 BB 06 9F
 33 D5 6F 60 8D 5A B7 E4 2A 5E 8D AC E7 61 72 3C
 50 52 D5 40 86 9D 14 3F 55 38 BD F7 0A 13 4E 2D
 B2 9D 62 23 E6 33 C4 04 56 2F 81 AF B6 29 4D 14
 03 BD B9 39 CB 52 4F AC DA 4B B9 AA BD 5E 3A 63
 17 2A BB 70 FB 4F 23 AE 03 1F 11 E3 38 1B 1C 48
 64 BF E8 1B BF A1 32 93 99 9B 86 CE 96 09 17 5A
 18 82 14 E1 56 47 43 11 DC 22 34 38 DC D5 32 E7
 9D 8B 7B 12 23 F4 C8 F6 2E 47 28 ED 45 44 AA A8
 DB EA 8A D2 14 E4 77 B9 54 36 D0 B5 A7 B9 3B C4
 2D EF F0 21 EF 0F 68 F9 37 42 70 31 82 EA A8 F8
 75 B9 EC 4C 4B FB 4A C8 9C EE B6 DF 62 66 7E 1B
 AC 6B 12 39 06 E9 90 3B 60 47 FF 89 9A C9 B5 92
 61 7F 0A E4 84 90 0D 68 3C 64 CC F2 FA D4 21 60
 B9 A9 33 DF F7 C6 6D 69 4B A6 D1 1A 37 A5 DC BE
 7C 54 C3 07 76 8D 1D 28 51 36 8F D3 C6 72 A2 2C
 EF 0E EF B2 74 99 AC CC 55 CA 61 91 91 88 45 FA
 AB 80 9D 4D B3 52 49 A2 D7 14 31 1B E8 E8 1D 91
 29 A1 B3 A8 5D 82 BC 29 86 C2 32 4B 37 63 A1 7B
 38 40 F9 58 91 E9 22 A3 70 63 1F 88 AA 06 76 2C
 62 11 9B E0 93 04 AF B8 D9 C5 45 0A 58 68 F6 2E
 F0 1E D8 EE CB 93 66 34 B9 24 7E 47 2D B0 AB BC
 CB 78 8C 9C 18 CA 57 8C 21 02 43 9D E0 A7 57 7B
 8C F9 B7 C7 14 C6 A8 AD 5E 9F 11 70 0A 99 27 F1
 E4 84 76 BE 43 D7 C0 18 8E E4 A6 C4 BB ED D3 94
 38 A2 B1 EE 2E 3E C3 F9 52 AB 81 4D 1D 76 B2 8A
 23 EB 48 84 F6 66 C1 0E 09 3B 3D 82 74 5B C1 DC
 70 17 EC 4E 19 4C 2F 21 5F DA D5 DA 39 9D C7 42
 97 FE 26 09 FF AE 2B 01 55 21 6C DA C0 31 68 E1
 CA 2E C3 15 E0 2D 69 C3 9C A9 C5 34 7E 28 C6 B9
 44 35 46 78 D7 EF 8A C4 48 54 D2 43 C9 EC 1F 41
 EE A0 E3 A6 CC AC FC B1 00 82 CF 63 6A BC FD 29
 79 C5 E4 AF A3 A3 3D F4 B1 FE 25 0E 74 A3 61 79
 2C A5 46 77 D5 D9 FF 4A F0 E2 8E 77 30 67 58 08
 4A E0 F5 10 C3 08 B3 66 BF 9A E5 C0 C9 CA 4C 9E
 6D 69 29 1F 53 49 21 B6 6E 3A BD A9 5C 08 1E E1
 23 AA F9 8C DF 1B 8D 43 A9 6B 21 30 B2 96 CA 70
 50 77 18 C3 15 D8 41 FB 84 E8 5B FF AF DE 31 8B
 4D 94 CD 3B FE E3 04 9C BE 41 69 E0 1C D3 0B E5
 0E 9E BB DD FB 69 A4 A1 6C 66 55 C5 E9 10 90 B5
 2D 74 94 1D BA F1 4E 6E A5 42 B3 6A 2D B9 C3 2A
 B4 11 B4 5D BB 78 70 1E A4 28 42 5C 5E D2 7B B5
 FF 49 71 B7 44 AE BC AE 1F 69 60 5B E3 2C 42 37
 E3 C8 11 C6 D6 3D 97 BB C7 B8 D1 8B 6B 9F BD C6
 12 B2 56 C6 DA 9C A9 DC A7 E0 3D 31 41 3E C6 FE
 69 B4 1B 68 5A 1F 2C 69 C4 3E 70 B0 ED 34 CD E1
 80 8C A8 36 E9 F2 8A 2E 97 50 7B 09 7C 89 64 DE
 43 11 A7 44 2E 98 69 47 F9 74 66 4D 53 85 A2 98
 24 2F 07 93 B3 5D 57 41 81 02 B6 A3 C3 6B 25 EF
 9B 92 B6 2B 50 22 95 2F FE 50 FF CB 97 FF 08 B5
 3F E7 17 73 BB E6 8A DF 23 37 1F E9 88 22 E9 EE
 AA AA 3B B2 38 19 3D 90 43 CE 9F BB 54 4C F4 0D
 E6 3D 87 02 60 7D EA C4 2F 58 A1 36 AD CA DB 69
 1C FD 14 19 A9 D8 5F 5B 32 9D 64 19 50 F9 7C 9D
 F0 CD FE 31 AA 87 8F C7 E1 7B D2 41 10 99 F9 1F
 CC 91 2B D2 29 90 2E 4C 82 E3 8B C3 FA A9 46 E5
 23 41 88 5E 50 64 95 D2 3E 00 69 92 6C 19 6D ED
 1F A6 A6 7E 2A 0A A0 9B 42 47 61 0E E4 62 42 59
 CD AF 13 56 57 A7 EC 3A E4 30 1D D7 FF A9 A2 3B
 D8 30 32 73 55 39 DF AB 2B 28 90 B9 DE 69 F9 EA
 E3 8A 46 54 F6 33 B6 E4 6B 2C 5E 96 03 16 23 88
 C9 32 29 14 21 0C 70 40 BB 91 A4 A3 12 25 5F EA
 7C B2 35 5B E0 37 AA 6E C9 FF F4 F4 F1 86 46 03
 95 5F 65 87 52 8C 9D F8 46 42 2B D0 3D 81 7A 4D
 83 A8 97 BA 0D DA 66 5E 9A E8 C1 97 F8 21 8A 5B
 C8 A0 2E E5 7C 86 F1 27 22 CC 8B 55 34 08 E9 57
 E8 07 45 3B 72 21 C8 2F 8B 6D C9 67 5F D0 1F AF
 CE CE F5 1B 14 4E 89 8F E9 43 3A DB EE EB 21 D3
 11 DB A1 10 6B 71 00 CC 55 9A D9 5A E7 B5 41 64
 A3 DC D3 BA E5 7A 8E 85 D2 6D CF 69 C9 2D C1 F8
 35 65 2E 25 BD 96 73 4E 9A 04 F7 92 CF C3 35 B3
 8A D5 91 0E 1F 00 DE 81 D5 F0 88 B0 59 62 0C 6C
 6E D3 62 11 02 0B 6E EB 5C 40 13 08 C5 CB E2 AA
 E7 18 E8 0C 37 FC 29 B0 73 59 8F D2 61 5C A4 FD
 C3 FE 72 0C 6F C1 BA 3A A6 CD E8 0A 41 96 AD 37
 57 DE AA FB 6E 47 D4 32 28 E1 EC 49 92 05 E7 E9
 0C 66 A6 F5 4B A4 33 3A 05 0C 67 AF 11 39 A4 0D
 42 A6 7E 5C BD BC 01 78 05 FD 70 CA 10 A3 29 6D
 E6 14 41 6E 46 3C AE 1E E5 15 F3 D7 3D 70 72 23
 EC F1 FA 1D 79 6F F7 89 D4 3F B1 B9 C7 51 73 DB
 4B 9F 16 B9 A7 ED E4 BA 6F 0A 0F D7 25 52 05 1A
 9A 62 CF 9E 74 06 21 B6 3F 5F F4 51 DE 39 1A F3
 88 08 D9 E8 55 56 F6 2F DB 1A 79 9B D3 DF F2 5D
 DA A3 FD 97 47 34 50 5B 0D 28 80 9F B8 4A DB E6
 97 59 AA CB 76 97 04 E4 1C 90 E7 8C B9 12 40 58
 90 1E 27 00 5A AD 6C DC 7E 23 F4 85 05 A1 9F 1A
 E6 DF 81 94 4C 40 A3 09 83 67 D7 99 10 90 66 4F
 BC 0A 12 75 EC EB 6C 99 EF 87 9C 57 74 D9 E5 98
 32 30 C1 EB 17 AB DF FE B9 27 E5 76 F8 73 1E 1E
 7D D6 58 07 D5 E8 4D F6 20 A2 C9 DE 24 34 5A 1B
 02 CC 80 9D 68 79 D8 76 16 A5 50 88 49 B5 D8 C7
 56 8A 5E E0 0C 0F B9 89 9A 6E 5A 71 7C 0B E6 77
 6D A1 26 DF 0F 10 01 EB E9 EC 77 4A 2D 1D 91 80
 09 5A F9 CD 40 BF 3C C9 4B 1F 4A D9 A3 E1 87 6E
 7F DB 3B F1 77 1D B5 0A C6 34 2A 82 DF 49 87 E2
 77 69 26 58 9A E7 80 D9 43 70 82 91 4C 5D 90 DB
 C5 9E 36 B4 3A 89 53 24 27 69 E4 CD A8 C0 6C AE
 C5 09 2A 65 A4 3B CE 43 CD 8D 89 C0 92 54 01 5B
 A6 A9 A2 13 CF D9 F3 64 ED 50 5E D4 03 6E 08 E7
 3D 12 F6 91 A1 0D 1F C6 92 D4 9D 70 C3 A6 92 DF
 E4 75 A3 65 75 25 F9 D4 44 B1 BD 03 EA 69 95 DB
 A2 7A A1 F8 C3 80 1C 82 B9 B7 10 9C 69 AA D7 16
 23 37 0D 5B 8C F1 25 41 D3 30 AB 95 6C B4 C6 01
 30 EB CF F4 CC 0F 06 EA D3 33 3A 08 C1 5C 33 BE
 7A 72 40 85 42 0E CD 7A 8B 97 88 4D 67 5D 82 5A
 F8 E8 19 50 5B 45 02 95 9D 3D 35 70 AD 5E B7 E3
 FE 5E 56 FF B9 CF 40 3E 83 41 15 70 72 EF CB 74
 8A 6F D9 B8 F6 C5 81 C4 10 4C F8 DC 48 32 88 31
 9D A5 AE 86 C4 A7 07 DB 8F E8 70 94 AA CC FF E7
 B1 B6 9E DA F8 0F E2 6B 20 F3 C8 0B 17 5C 36 0F
 D2 B2 81 13 58 3E 93 F7 5D A8 80 D8 99 95 19 CD
 FB 75 45 35 16 AB 49 1E F1 CF B0 13 A2 5F C0 14
 0E 28 5E A8 D9 49 F7 2D 0B F5 66 AA B5 A9 46 64
 C1 A2 27 C4 7F 26 EA 3C 59 01 28 89 EB 64 EE FD
 F6 2B ED 19 50 84 FB BE D6 C2 77 99 ED F8 E0 A9
 9D 84 15 DF C9 84 79 2F B9 69 11 B8 85 31 30 B7
 E0 A0 56 65 1F E3 53 E8 92 08 A4 92 75 A9 93 E1
 84 DA 62 9E DD 61 9E 50 13 C8 E9 CD 1C 85 F2 F2
 93 70 41 F9 95 5F FF 8E 57 32 1D B9 65 BA 88 EF
 32 C9 F5 FF E0 DB 94 A8 6F B3 FE 2B B6 BC CB 85
 E7 2C CF F5 EA 6B AA 64 E5 B8 16 25 87 19 A6 95
 16 D8 89 A9 3E 46 21 88 AD 5B 78 91 D6 9B AD 75
 B3 13 FE 4F F7 30 59 5F C2 80 6F CE 4C E7 B5 66
 0C 78 CA FF 6F 79 F2 90 0A 83 6A D6 4E 21 4A 7E
 5F 56 B1 B6 5D C2 DE 77 0F 25 C0 3D 5F D3 9A 4B
 06 13 D0 AA D1 47 8E 0F 9D 1E E1 63 05 C7 6A 42
 E6 4D 19 EE 90 07 2B 88 C5 3C 60 05 59 0D 5D 1B
 8A 6D C2 FF 6E 8F 8B 65 7B CB 38 38 59 69 AF 9E
 42 F4 96 4D DF 42 C8 70 05 B8 2F 21 CE C0 23 03
 01 21 D9 FF 09 A6 8B 4C C8 3B B5 EA 42 BB 90 72
 F2 7A 78 E1 BB FF 40 E0 E5 E9 6C 51 EB 8A A9 21
 9E 84 90 E9 96 08 E6 5C 5F F0 C0 A8 D0 79 16 84
 DF 5D F7 C1 97 98 51 6F 5A F2 7C 6A A2 9C 3A 7E
 59 8B E6 93 14 BA 36 77 48 18 3B C8 11 4E B9 51
 97 0B F5 C5 E1 4C 8C CF 5F DC F7 AD 79 8F EC 86
 8E 96 F9 78 DA 2A 49 C6 6F 41 7D F1 61 15 B7 E0
 FF A9 9B 92 2E BD 76 61 2C 5F 76 86 A2 FC 75 BA
 A6 10 39 77 1D 0D 2B F7 A5 62 3B EF 8F 16 57 E0
 51 0F 6C B6 8B 62 56 1A 18 04 7D 6D 05 81 DE FB
 C4 C3 65 54 23 7D CB 56 89 10 96 75 32 4E 86 9A
 87 AB FD B7 51 23 50 F8 AD 39 5A 4F 27 62 FA D9
 FA 4C D0 1F 30 9A 5B 39 C5 0A 65 1D 72 3C A4 4F
 BA 33 F6 60 45 73 DD 2A F4 B7 75 78 BA 6F 65 6C
 AE 08 FC 81 C6 4B A1 0B E4 23 E8 2F A0 8B 32 9C
 BB 70 E4 36 58 5D 18 1C 34 F9 E0 36 9D 7E 46 04
 DB B4 E6 87 ED 79 EC F3 34 5D D3 31 B1 3B 70 C3
 73 84 D5 08 1C 10 1B 6E E4 B8 6A B9 40 2A C5 02
 1B D9 15 D1 10 E7 DE A8 E2 D4 9E 03 E5 D6 4C 04
 2B 65 A9 ED 66 F6 86 42 FF 29 C9 8C 81 2B 38 82
 EE 25 1F A0 36 66 12 DE D4 DE 83 EC 6C 9F FF 1F
 04 CF F5 8B 49 C9 14 2D 4F 24 60 18 B4 E9 AB 98
 B0 D3 66 31 2D 73 58 E0 61 47 4B B9 54 3E EE E1
 3F B9 B5 AC 2A 2E 99 62 10 AB 5D C5 20 B1 3C 20
 43 C9 BC 28 68 B7 51 AC 12 1A BF 15 D9 E1 F7 2B
 EA 5F 6C 40 76 3E BE C9 AD D9 79 04 0E FE A3 92
 88 8F E3 BA 82 FC AE C9 68 58 0E 9E 25 AC 23 04
 25 0F B7 D4 32 BE DC A1 4B 59 8E D1 DD 87 09 7C
 3F 23 F6 B3 80 25 98 F1 2D B9 C1 70 26 DE 64 B5
 46 06 E8 49 5E FC 54 51 6A AE AB F9 E0 93 52 CF
 37 D1 F3 F1 C1 26 F5 FD C0 75 4F 36 39 3A 8A 9D
 EA 78 6E EE 5C 65 5D E9 E5 60 87 7D 4C B0 1A F9
 7D 41 CA CC D3 DE D3 7B 23 17 A5 87 19 E2 58 8C
 28 3D 90 A3 1F 10 10 EE A3 5F 7D 66 11 AB 9E E1
 ED 8C 13 28 9E 04 E7 26 56 33 7A 31 AC 72 97 AA
 EA 89 ED EC D6 83 BB EF 2B E8 93 FD B0 E5 93 DF
 55 6D A2 1B BD D3 3F 89 B6 19 54 DF ED FF 00 6D
 B0 CC 07 0D 37 19 8B 7D 36 EE C7 93 3F C4 6A 64
 32 56 73 CA 8B 14 C2 32 3B CB 10 61 CC C2 FD 5D
 A1 F0 71 8D 3D 24 EF A1 9A AA 18 90 26 D6 0F B1
 FB 50 5E 54 E1 47 4F 42 A0 02 F3 CD 49 5A 90 16
 81 62 52 E9 0A 80 F0 1B 2D 8C 74 B4 98 F9 96 B7
 7A 8C 9C 31 06 EF 72 03 14 EF C1 65 DC 96 93 1C
 05 54 B1 58 4A 6F B3 33 F8 CF DD D3 00 9F AB BC
 78 58 25 77 7F 20 E2 DC 29 F7 6C 83 39 36 CA 47
 13 BD 05 D3 8B 53 06 8D 3B EE 10 EB CA B6 B0 D7
 88 5C F4 51 32 1B 5E 8D C8 BA DA DB 4E 76 D3 0F
 FD BB F0 58 02 30 F3 F5 BC 64 B5 A0 18 E3 7B 99
 9D E9 52 D9 67 37 FB 6C 58 69 75 B1 D8 7D 28 F1
 85 07 DA 36 07 D2 28 A4 E3 6A 51 82 B8 BE 9D 5C
 42 78 45 FD 28 95 AC D5 C0 4D 4E F3 8B 5D 68 55
 06 98 3E 56 A1 3B 5B 6B 83 F4 8D A5 6B C8 B0 20
 5F ED 36 28 0B 65 1D C9 6A 72 E5 EF E3 51 D9 C3
 0D 55 EB 4F 80 C4 BD FE B7 97 50 C9 4E 3E EF 14
 20 B2 44 22 99 15 B0 10 81 8E F7 FA EE 85 EA 07
 44 5A D4 A6 F2 3F AF B5 46 6C 21 D8 27 18 AB ED
 81 CE C8 07 6C 6A 70 18 5C 3C 14 0A 90 8E 5F 07
 96 F3 A7 AC A4 32 63 0C A2 3C B1 39 15 22 19 13
 62 FE 23 1F B4 51 71 DF E4 02 DC AC 8E 95 3D 40
 20 F5 11 A8 5E 9A 02 17 61 81 9D 8B 5E 56 66 9D
 63 63 4C 25 3D 29 D7 11 CD 47 73 2B FE 9B 80 5E
 31 C3 C9 83 CF DD 43 7A AA F9 5F BD DE F4 4C CB
 BF DC 0E B4 79 AB 8F 84 B8 93 F6 B9 7D 92 4F C4
 62 C1 80 B9 CE CF 3A 92 24 1E A1 69 83 5C D2 67
 DD 22 AD 5C D4 0F 74 27 7F 58 96 D1 61 CF 88 3F
 F8 41 10 F6 F4 5D FA 3B 4D EA 6D 25 3A 0D 26 B2
 C4 16 17 C7 CA 8D 4E 31 63 42 15 C1 71 7C 16 0B
 EC 2C DF 40 56 3B 59 30 43 D8 D9 42 A5 58 88 DF
 86 6E 63 FF 78 48 C5 A5 8C 2C F4 93 0F 9F 70 30
 99 A4 47 BD E6 D3 1F 39 28 75 FA 2B 03 07 55 13
 87 E0 25 8B 3D 1E D3 93 00 EE F7 D0 9E 23 AC 33
 67 7F BC 5C F9 AE D8 96 95 C6 38 BD 70 DD 93 93
 81 C7 E6 5F 49 E9 5D 7C 92 77 4B 13 DF 0A 9A 89
 DE B8 77 73 AD 3F 2F 16 91 19 88 9A C8 68 1B C2
 73 E6 4B F1 A7 EA 8A 3C 00 17 6D 66 FD 88 B9 96
 67 7A 60 8B BE B5 CE F2 F8 2B 1B D8 5E 35 94 8B
 8C FE C3 C4 96 28 FB EB E8 5C 4E AE B3 C4 12 61
 2C AF F4 32 38 10 F8 08 ED B1 67 12 34 E8 18 DC
 00 A7 C1 A0 ED EB F2 12 D8 C7 3D F2 78 99 53 69
 40 FC 98 01 5A 1B C8 48 0A FE 20 E2 96 6D 6B 30
 C3 17 84 73 D0 2E BA DA D5 94 50 AA 12 E1 24 4D
 AB CE 82 58 1D 32 DB 34 48 06 49 1C C4 A6 D0 BC
 D9 F1 B9 C4 6C 3D FA BA C1 20 EE 7E 7B 83 8C 3D
 76 F5 EE 12 86 7F BD BF C4 A7 45 FE 0E B0 F4 B3
 5F DF 4F 26 42 8D 50 97 81 E4 24 E2 97 3E 37 2D
 32 AD D2 98 0E 58 93 42 E3 8E 2B 26 31 8B 98 DD
 5F 19 F1 51 8B 1F 81 C8 2E 78 C9 A2 F0 07 85 01
 8C 27 B1 BC DC 4A 7F 7D AE 07 3C C9 69 6C 27 28
 67 30 12 D3 60 1A 57 90 FE DB 5C 0B E9 4E 62 0D
 AD 70 21 6C 5C 0D A0 E4 A5 04 A1 7C 2C 3F B0 52
 13 FA D7 7F CA 1F 9D 8F 50 A6 FE 46 1A 3F D6 95
 D3 B8 2C 67 41 BE EE 40 C2 9C 65 CA 2B 61 91 29
 45 6E 78 77 5E 3E AE 4C E9 CD B8 44 84 22 90 3C
 F4 25 5B 0C 6E FB 10 36 78 C5 C3 00 D2 32 73 5D
 7F 9F E4 01 AC 39 0B CE E2 32 D1 F4 B6 95 48 A0
 BC F0 EE DB 9D FC 15 7D 8D 04 07 A8 AC 50 C0 7D
 AB 81 06 FE E3 0A 33 D8 68 86 30 78 E3 3D AB DD
 30 28 83 53 44 3D 86 33 9C 40 B1 99 FF D8 6C 0C
 22 A5 16 81 61 10 C6 8B C4 9F AE 3A 4D 4E 56 AC
 3E 66 B4 79 FE 49 66 2B 56 7B F9 87 8F 5F 49 F6
 0D 00 E0 31 8A 1F 41 46 40 80 70 2F 1A BB 28 CA
 24 88 31 87 9D 8B F4 FD 67 A1 3A B8 5D C1 8C C2
 E0 0A FF 08 49 69 28 91 D1 FD FD 9D 03 92 09 55
 F0 6C B4 CE 3C 3A 3C 03 58 31 A8 7A E2 C4 AA 39
 87 6D 30 CB 46 21 9C 95 49 56 F8 DD 09 A3 45 5B
 FF 7D 34 B5 5D 8E 73 DF 8C 52 D3 1C 40 8D 5E 26
 A2 D3 A2 88 F5 47 DF AF 52 EB 36 B0 82 56 C2 93
 47 12 D8 30 7B 56 BA CC 11 2B 79 87 D4 42 77 13
 97 D7 0A F4 E0 7D 7F 22 31 0E 2C CF 88 41 B7 44
 6B E5 8C 50 F6 D7 C8 51 7F D7 06 33 BA 29 7E 71
 28 44 FF 16 70 7C CB EC 70 C1 4C 8D CB FA 93 D6
 D0 0D 2C 7F 90 0E 0C 17 7F 9A 51 4F 36 46 99 FF
 45 32 ED 58 D7 FC 1E 3B C6 4D E4 05 BF E1 8F 82
 2D 61 34 9C 16 C2 55 91 C5 61 95 80 2B 2F 72 06
 87 39 AF 03 97 8F 68 C4 47 AF AE A0 B4 92 E6 63
 FB 20 58 57 2E 2B B9 36 69 7E F8 35 A7 55 8D 59
 1F 81 8C DC 4C 67 A2 46 D1 FC E6 4F F0 D8 37 DA
 7A D2 A2 1A D8 33 61 94 75 EF 13 8E 8B C6 46 89
 84 F0 DC F9 AA 56 DC B9 07 A4 EE 8B C1 A0 84 EA
 AD F7 8B 9D 06 92 0A DD 78 F4 B4 B9 52 1B EC BC
 DD 23 DE 2A 76 DD 37 F5 64 60 50 2F 5D 5A A9 D8
* End 2020443569 4135275436