* LTspice Encrypted File
* 
* This encrypted file has been supplied by a 3rd
* party vendor that does not wish to publicize
* the technology used to implement this library.
* 
* Permission is granted to use this file for
* simulations but not to reverse engineer its
* contents.
* 
* Begin:
 84 61 D4 91 30 90 16 6B E9 65 53 EE 2B 5D 81 CD
 6E 36 AD C9 6D DC E5 90 75 1E 04 7E 87 1B EB 90
 B6 83 18 A5 8A 37 82 4B 5C CB 00 B7 58 80 4D 3A
 30 3C DF 63 1F FC E5 62 4E CA 1D 4F 43 01 84 3E
 35 CA 9E B7 52 B4 92 A0 22 7D 91 7D 45 D6 EA 7B
 8E 9C 03 F4 D0 6F 84 65 6F 6A 67 3E F9 06 48 A9
 B0 36 E4 36 BD 83 10 03 52 79 83 6C F5 61 73 AE
 42 62 54 0F 99 8A 63 5B 42 5F CA BC A6 1F B6 93
 53 E9 0F 74 2C CF F1 CB 97 3B E6 4E 9A 70 E7 74
 B0 57 73 D3 E0 E1 89 59 F6 23 77 B7 2F 2E 7A 63
 EE 2E 33 9E F2 DE 89 B7 E9 A8 46 B6 7B E4 5C B8
 DE 8A 0B CC D8 F1 70 EB 58 81 9E BE 5A 41 DD 23
 F4 66 20 1D 70 BC 57 29 11 C6 DC F6 1C 73 79 0F
 E3 59 AA AC EA 98 2C 4A 48 7A 4C 94 07 4B 9A 70
 62 E4 EE 09 E2 C4 FB 33 E4 57 A3 23 53 46 DC DA
 00 01 BB 9A 3D 65 35 27 AA 65 B9 2A C8 E4 64 FE
 CD 60 B2 41 A4 DB 70 7D 66 32 84 6F B0 EB E5 42
 54 C9 CC 58 BA B2 69 2B AD 8E 98 1F 29 9C 1A 94
 F6 C6 65 E1 C8 FD 28 8B BB D3 B6 EA 7D D2 CE BE
 D7 57 87 97 90 85 90 A5 6E 03 53 7D D7 CD D9 A4
 E8 7D F3 CD CF C5 3D 59 5F 04 EE AE 9E 91 0C 7B
 DC 67 B4 F5 B9 32 00 0C 59 3C 80 A1 8D 0E 65 BD
 1C 55 D7 81 97 2C D7 8F A9 0E 72 47 A8 2D BA 6F
 4A 1A 6D 26 1C BB 5F 6D 81 10 ED 75 88 6F 73 17
 2F A0 2D 50 63 6F C0 6A E8 8E 32 24 73 F8 B9 8B
 5A 66 73 3D CF 04 69 74 9F 4C 86 BF 64 C2 B7 28
 ED B2 27 62 70 85 53 13 AD CA ED B1 74 71 E8 D9
 C1 E8 D5 04 69 FD 93 C7 1F 4B 24 FB CC DB C1 17
 03 D0 62 D6 59 1D 41 45 A0 D9 39 C7 4A 6D C3 A9
 60 E9 FD B1 D0 6D 01 9E 7C D7 43 12 20 D9 BF C0
 93 43 1F 1D C4 40 4D D0 F9 15 35 59 8D 03 5E 84
 6F C2 D3 22 E9 65 3A 87 D3 B3 C2 9D 3E C7 3B 92
 60 45 92 3A 53 5B B6 F8 45 04 84 A8 2D 1B 20 5B
 48 B3 1A 50 52 D2 98 BB 11 CE 98 3B 62 49 88 2D
 91 B0 14 34 ED 35 05 4D 1F 02 34 53 93 9B D2 6F
 EA C2 2F 97 AF 85 3E 6E 01 06 56 FC D6 BB EA 60
 81 09 47 34 1D 3F AC 60 1A EF 61 4B 14 32 15 C2
 A8 C9 C2 20 89 27 8E E0 86 B5 F7 B9 D5 35 2E 1D
 D7 BA 76 EB 33 C0 0A 3B 36 1C D9 37 BD 46 51 AF
 BC 67 76 92 87 83 1D 8E 65 D2 59 61 0F F4 F4 F3
 22 CE 5F DD A9 F5 AB 0C 75 E7 51 CA B5 7B 23 EE
 38 B8 C2 14 A1 D3 74 0B F9 3B EA 4F D1 E2 25 FB
 99 0A AD 1B 95 D2 D8 F1 63 6C FB CC 1D AB 7F 85
 A4 07 78 AA C6 04 D1 F0 44 DF 7A 9E 81 4C E1 FF
 06 2C 35 23 04 43 B5 CC 1F 74 07 BD 52 BC B8 F8
 C2 89 2E 27 15 58 42 1E AE FB 44 7F BA 92 F6 28
 35 38 12 A2 AB 2B 94 39 52 D8 F8 9A F6 F5 C2 10
 2B FF 9B 81 02 C6 6D 67 F6 BC 7C B4 53 CC 28 B7
 6E 3B 0A EC D7 48 50 BD 7B BC 38 76 B4 17 C2 30
 78 C5 40 B8 1F 22 C3 62 2B 0E 6C 3D DB F4 32 85
 0C 36 EB E5 77 2F 05 9B DF 02 7E 99 71 76 83 87
 3E AE 95 D2 7F EE 6D 45 2E 75 68 2F D3 01 A6 F2
 C1 09 00 52 C4 BF 28 A2 45 9A 59 16 BC 5B 1A 08
 24 B7 53 9A 73 F6 35 BE DF 1A FA 2B 54 D5 26 84
 DC 65 CE AA 76 63 03 B4 3B ED 58 22 F2 96 CC 92
 0A 55 34 FD 00 71 E9 90 C6 CC FB 8B AC 70 54 72
 0F F6 43 D1 62 6D A4 B9 AC 86 08 3B D2 6E 31 3B
 42 87 E5 5B 29 29 DF 98 CC 63 13 81 44 1D 12 FF
 33 7C 9B C2 3A DF 01 BC D3 D1 2C 97 52 2D F5 20
 A2 D9 B6 2E 95 CF C6 40 B4 84 BE 59 25 7E 01 43
 69 53 3C 22 42 59 83 3C 0D 88 24 22 14 9D 31 7F
 50 64 07 5D A3 9D 57 60 E5 37 FF 04 FD 56 8A E8
 7D AD FB DF 89 F0 E5 5A 1B A5 F3 C4 67 F9 9A 32
 9E A6 F4 A3 86 55 FC 6F C0 B4 41 F1 7B B4 0E B8
 4F C8 0E 90 9E 1B 60 D7 6C 9E AB 3F 1C 60 FF C1
 94 49 AD BC A0 0F 8E DB 82 BC 28 B4 D4 AB EF 82
 09 3E 5D 95 F2 B5 8F 41 7D 9F 31 D5 8A A2 22 1C
 77 C8 E4 E0 74 CE C1 92 6E 8A 34 77 3B DC 0C C0
 44 C7 D6 BC 0F 1B 7C FE 59 AF CC 98 D4 6C 6D 36
 FA 27 35 EA FE 36 81 F9 69 9F 35 78 E2 1E 74 A8
 D4 CD 10 01 35 A6 E9 53 83 32 F1 6A 77 D9 59 D4
 6E D1 B6 D0 94 C6 F9 2E 16 45 97 7D 5D 1F DE 57
 EC BB 55 38 A2 0B 54 59 AF 74 09 F0 F2 2F 9C 2D
 49 76 D9 2C 7F A9 E0 A8 16 98 C6 E1 3E F7 A6 47
 AC 72 99 3C 43 33 4C 64 E7 9C C4 89 F0 DA 58 FB
 39 F3 AC F2 1D 1A A2 4D 6C 38 1F F9 48 FC EA BF
 F4 ED 16 B9 5E 31 D9 89 4D 7A 40 D5 1B 80 91 83
 7A DD E9 79 35 2E A5 AB 52 EE 4B 3E 03 A3 94 71
 9A EA 26 B8 96 1F 90 4B CD BC 0A 13 76 AE D5 0E
 43 1B 02 AB FD 61 6E 89 B2 D0 4D 58 5A 7F F4 C9
 B3 D2 B1 17 1A 63 60 9D 55 16 7E EA AB 78 EF 9F
 5B AC 1B 1A 12 C1 8D 38 38 AB C8 D3 BB FB F6 E5
 91 FB DE C5 2D C0 AA 30 43 C8 25 3F 2B 3F 90 82
 37 B1 64 3A 4C 13 16 F3 C3 DE 58 FF 56 97 6A D7
 CF 3F 9D D2 76 7A CB B7 2D 13 8E 0E 08 FB 48 22
 9F 1E 5F D5 73 7E 40 19 0B 0D 98 18 20 4D 44 54
 54 53 1D 07 2F 2B 86 1B 9A CE 4C 93 50 ED 2F C7
 CE FD 31 15 75 7A 8F CE EA 2C 1E 80 0C 2D 46 67
 E2 0D ED EE 85 1C 4F 58 4F A9 99 76 CB E4 A4 C8
 03 FD 28 9D EE 93 B2 27 0E 1F ED 57 4E B2 01 BE
 76 29 0B 00 44 AD 72 BD D1 ED 72 6B 01 BB 11 39
 15 66 56 4B 87 5A B1 9B B9 10 4D 48 A0 13 56 00
 71 4C 8A CD DE 5B 61 53 6F 72 37 F9 42 E0 B1 0E
 BC CE 71 6B 82 D6 74 BB 97 60 41 AA 6C B8 0A 93
 3D FA 37 A0 D8 D8 5D EE C0 70 82 59 D3 AB 86 3F
 4E 80 7D B0 3B BF 4C 6B 5E 79 1E FC 25 E6 92 39
 46 BD 14 9C 32 D8 EC 60 56 08 17 C4 72 69 07 F9
 D3 2A F5 92 F6 7F 92 79 6B FD DE A3 53 76 FA C6
 14 33 EE CE 49 C0 21 36 AA 3F 40 0B A4 3C 78 0F
 69 CA DE 2E 6F FE CE 82 81 37 90 19 B0 D9 0A 3E
 46 EC 33 5B 2A 9D 43 EB 9F 98 FA D3 15 54 C3 D0
 E0 27 01 A4 44 5F 65 BF B3 86 E5 2A C4 FE 6D 4C
 C2 45 4A 08 1C 85 65 95 6E 8A 73 2A 70 C3 18 48
 34 52 00 71 08 BC F5 AA B4 48 70 6B 32 09 36 95
 CF 11 76 7A 33 D0 FF E1 C7 5E A9 27 ED 34 09 AA
 DB B6 B7 68 A2 F2 A0 B8 49 3E 53 9A 00 27 5A 47
 90 FF 8C 5A AA 8A 0F 62 4B ED 91 83 FD EF AB B9
 B4 9F 3F 41 57 C7 73 6E 94 16 34 63 BB A1 17 1A
 46 CA 76 22 A8 02 EF 6B EA 5C AD 78 22 5F 49 7D
 00 CC F1 32 42 70 D4 C0 C5 CA 4A 7E B1 9A 04 11
 BA 92 FE AE 20 35 96 0E EB 9C 4B 88 2E 85 DE EC
 08 C5 A4 04 5F 57 A8 F3 B7 48 38 78 2B D6 0D D8
 CC 88 7D B0 8F 7E B2 A3 07 9D AF BC DD AF 92 35
 A4 65 97 27 44 36 98 12 31 DC 62 41 38 63 E7 7C
 03 94 79 3C 81 CE 8B 2E 4F 81 B3 A2 EE 2B DB 78
 ED A9 CB 6A 4A 82 B3 8E B8 C7 66 39 EA 09 09 8F
 CD 19 F9 4F 4A B1 14 12 85 9D 1F 8D 41 A5 86 A9
 80 1C D8 57 81 EE B9 2A D4 35 83 E9 A6 38 E3 3A
 72 3A 10 34 CB E5 EC CE 8D 3C 29 B8 EB F0 72 51
 F7 02 D2 99 B9 AE B3 80 A6 71 55 65 8D 33 5C 15
 96 D8 A7 F3 FD D1 FE AD 06 65 76 B5 B6 D6 13 5F
 70 F3 B8 BE 9D E0 D9 73 DD 56 4F 2E 29 C3 D3 6B
 FB CF 2A 5E BC 7F 6A 60 D1 2E 62 0C 9D 78 68 B0
 D2 77 CF 64 A5 89 CD C7 FE 46 9A D4 15 AE B9 32
 D7 ED 64 79 8A F9 4F 05 A3 F2 7D 41 EE F9 A3 31
 99 AD 47 54 09 19 F6 C1 E6 49 22 36 99 B4 24 0C
 F2 D6 E8 57 BB 9B F4 E9 11 D5 10 A7 74 7B DB C1
 97 F7 C0 37 19 E4 52 57 F5 BC D4 23 2D 37 46 EB
 B8 DB EF 0E D0 DD CF 58 3D 18 89 5A 3A A4 96 94
 35 98 14 93 AC A9 16 5E 4B 39 4F 1A 57 DD 70 6E
 3D 29 21 9E 9F E1 D9 3C 49 AC 8E 75 96 14 50 B4
 57 E8 35 C6 49 0B E9 18 D3 0F C7 DE 14 C0 7E 0E
 D7 87 50 02 92 CE A7 59 C5 70 A0 74 7A FA CB 78
 84 B1 1B F1 99 C9 8A 3C 29 BC 34 E1 4F E5 07 BC
 F5 60 D5 92 5E DA 22 6E 1B 27 21 42 96 CB 0B E3
 EC 19 B5 06 3A 5A 26 0B 51 D0 F8 2C 69 95 C5 44
 4C 22 44 23 89 0E 9C 2C 0A AE 38 99 1C C5 10 15
 44 0A 3A B0 BB DE 65 E0 4A 1C F9 24 19 46 8E F4
 F0 DA 72 AB E1 FB 7F 24 E4 B0 30 6D 5A 02 D8 17
 4E 94 55 CC 5C 75 9E 20 33 8A D9 59 85 AD AD 98
 62 6B BC 08 E1 BB 7E 98 3D 2C 53 C2 6D E1 6B 52
 7D F2 40 00 89 6A BA 7D 3B CD 4F FA 11 50 29 2F
 68 1A CB 2A 0F FB 4D 47 0F 1B F4 CF F3 A9 DF 36
 CE A3 B2 F4 27 EF D5 32 3A 30 ED A9 12 C3 23 ED
 0A 7E 26 B7 BB CE 10 94 DA 7C 46 FB E8 B9 54 F6
 99 E9 A2 9B 0D 97 9D E2 6A 78 6E 2E D0 BB DC 0E
 1E C0 9A 70 0E FE 58 BE 73 78 BB 49 CE 23 5C 94
 99 A9 99 28 2A 2B 72 01 39 27 18 81 A0 20 B4 E6
 18 F3 38 70 58 1C 0E 65 47 20 0A 55 B4 66 97 FA
 F6 F8 E3 E6 3F 7D 3C 3E 29 BE 71 89 E5 DD 5B 92
 6B C8 B2 23 CF AF 5A FE 0E AD 0C 60 AC E0 66 35
 9A CD 95 CD 81 22 0B FE 2A BA 95 D8 4A 58 AF 90
 4A BF 55 9E 7D EA 9A 98 E0 25 84 D1 7F 10 B0 E6
 74 96 AA 65 81 9D B9 E8 D9 AC A3 E6 DD 21 91 2F
 6B B7 38 C5 2A 98 ED 5B C1 19 72 78 32 B9 6D 37
 D5 D1 B8 85 F6 55 48 FE 1A 19 F3 75 92 D9 86 B0
 52 9E C8 56 36 AA 84 B3 17 84 CD F9 64 B5 95 D6
 CA 55 46 DF EC 90 26 AE 64 66 9E 9D 0B 76 4C 50
 C5 31 3F 2D 53 3A 47 60 6E 42 89 F1 25 64 9C EC
 B3 26 91 7F DB D2 95 D1 F5 AB B4 4D 99 AB 6B B6
 BA EC F3 E6 36 36 2C 57 B9 71 B5 77 C3 0C 2B CD
 9E 63 09 2F A7 67 C2 0F 39 8D 00 BB 5B 93 91 B9
 E9 94 AA 91 E2 F1 C5 F3 44 25 F1 97 03 E8 17 B2
 F5 AA B9 5C 44 5C 38 25 0A 39 87 54 D4 F3 26 50
 FE 0D E8 11 52 F8 EC EC AA 7C 80 2D 77 74 12 90
 34 6E 02 78 D7 D2 8D 21 25 7C F2 95 DE 27 B0 5E
 41 FE 14 23 71 F1 3D 7E A1 A6 62 ED BE D0 82 45
 7D 83 06 3E 0C B6 A7 D5 BF 64 C1 C7 FE 66 D0 77
 B7 99 BF 09 3F 2B B4 FB DD 08 A3 F8 DC 32 E5 3D
 2C 93 5C A5 3F 7D C5 16 C3 DF 5A 31 45 D6 80 79
 5C 12 98 B8 5A A8 54 43 32 A6 B7 F5 EF 90 F4 5F
 A2 51 2B AC 88 3A 14 4A 61 C3 00 52 92 10 92 95
 FD 3B 3A 1E B4 D7 E0 18 A0 10 A4 A0 88 64 F5 8F
 E9 4D 04 6B 94 EE AC 73 D6 F5 B4 4C B1 BE 0F 08
 41 98 C7 9B 29 4F 71 96 44 1F 15 D0 BE 3F 59 CD
 0F 73 E9 67 3D 90 00 13 11 31 E8 69 2A EA 51 DA
 96 8F 9B F3 B1 D8 51 32 FF B1 DF 88 4C D7 18 C6
 DD 67 12 33 CD 93 26 E6 1B 99 D7 2D BD 45 10 53
 F7 7A 27 BB E8 FC 99 87 C3 56 D1 3C CD 0F B9 DD
 7E F2 56 0A B3 59 88 E4 3D B4 F0 41 B8 85 0C FC
 E9 6B 69 DB 5A 8C 5F 29 91 46 31 A2 8B A4 45 1A
 F6 22 96 9A D8 17 8F C8 E2 98 E1 B6 73 6C 34 CE
 3D B1 DB 96 7E 5C E2 80 16 F5 1C AD D3 F3 27 99
 FE BE 8D 49 4E A1 13 89 FE BA F4 14 56 90 C3 8F
 90 16 77 00 54 7A 96 54 1D 92 49 27 16 9F 7F D9
 A8 B8 5A 72 CE BD DA 4E 6F 32 0F 03 D2 88 06 76
 8E 5C AF 61 FA FF 9A B0 72 32 1C 40 63 7C 49 C2
 98 DC F6 A5 B8 67 7E CB F0 A0 D9 62 47 D3 B0 BC
 FA 15 2B 8B 02 B0 A3 58 1A F7 5A 80 50 C0 8C B3
 00 CB 10 5A 5B BB 2B F5 B7 69 48 57 C2 C1 FB CD
 F7 2E 5D 75 26 2B F5 60 61 44 F4 79 17 6B 12 2E
 39 2E E1 03 05 B0 6A 5F 99 51 5F 2E C0 D6 6C 90
 63 93 DB 1E 7A 48 91 CC 8A 75 44 0A 63 0E A2 AE
 10 CD E3 0A 8C 57 8F D5 53 0A 6D 28 C9 8A AA 59
 59 6F 87 58 78 4C D6 79 B6 E1 65 6B 61 B2 64 CF
 A7 9E A4 E0 9B 79 6D A7 72 C2 F9 83 0E 45 2C 8A
 DF 41 3A C5 E6 93 3A F6 04 59 20 8D 15 FD 62 67
 D2 56 F2 0C 07 B6 7F AB 80 D7 21 19 9E 50 75 EF
 CA 57 8A 9D 02 AB 34 4A F4 4D 71 5C 9F 3A CE CB
 CB 6F F3 B7 C9 0F 5E 6F 10 A5 EC E7 8C 89 EA 91
 10 8A 3C C7 52 3C 70 AB F2 61 60 B6 F8 F9 4C 9E
 16 66 50 B2 FC 43 51 2D D0 90 7F 7F F7 90 35 FF
 AD C2 E2 F4 BE 1A 98 20 45 D6 E0 3F 9B 37 0B FD
 AA 87 EB 06 AB CC 04 2A 66 A8 2A 0E 4F 9C 3A 87
 91 7D 4B 8A 1B 36 85 A9 9E 8C 8C 3F 4C ED CC 3F
 F1 50 7E DE A7 C3 59 68 5E 47 86 7A 73 6E B3 27
 3F F0 8F DA 01 EE 30 73 B2 3B 71 95 93 CC 5E 0E
 B4 CF 22 33 44 C8 75 F1 75 B3 47 60 FC FF B7 8E
 1F 27 0E 6B F7 C7 FA 6D 52 A4 E0 A9 C3 DF 91 E4
 CB A1 D0 AA 6D 92 4F 47 65 FF 12 8D BF FB 29 07
 BE D6 81 BA BF CF 9C F7 AE 1D 5B AB 88 8C 1D DC
 A9 87 76 87 22 57 6A CB 73 B5 8C 85 1E 5C E8 98
 7E 42 1C 58 72 1D F2 0F D9 CA E3 54 68 AB 94 1D
 2A C1 4C B9 0A 1E A3 53 0B 11 4C D3 DB 5A 0C 99
 81 2A 41 1B 47 25 16 FA B1 09 93 26 B3 A1 B4 D7
 05 9C 2B C2 45 5B BB 74 77 60 A7 90 65 A9 AF 8D
 BC 58 15 BF A0 01 47 8F B1 BA CC 17 6A B4 8C 66
 69 F2 84 46 41 6E AF D2 27 20 93 05 FF FD 51 FC
 89 91 20 BD CC 2F BA A1 BB 6C 5F 7E 10 6F 95 9F
 25 36 36 6E C4 2A D8 1D 09 41 2F 97 2A D5 87 A1
 F0 FB 34 9D 94 27 1F 90 CD 2B 8A AD 73 65 1A D7
 24 F1 41 B5 93 98 84 79 36 64 9A 2C 0A 59 66 75
 88 DA 48 C8 93 48 46 2F 3C FE 24 9D 93 BA 9D 24
 33 A5 57 EB 4F D7 90 58 A5 3A 5F BB AF A8 CA DA
 04 9C CD BE C7 96 4C AA ED E3 15 CD 39 FC 48 1C
 07 18 B6 11 2F F0 29 85 31 8B CC 52 94 3A E5 55
 4D 65 8D 01 DE 8C 8D 56 02 9A EC 1D 6C 46 06 04
 C7 4F E7 A0 CD 78 F5 1C 7B 8A CB DA 73 6D DD 93
 32 F4 43 CA 9A ED C6 3E BD 01 B6 6B F8 33 5B 4F
 B6 81 42 EA 65 BD 0D C0 B8 77 D9 5E B1 E5 42 D1
 26 8A 72 5D 1A 55 5C 0E A4 69 64 53 2E B3 AF F3
 FD 1C 39 26 2B D2 49 77 CD EF 57 B8 5A 09 F2 42
 F3 97 4C 82 32 7E 65 95 26 28 D4 50 11 39 99 83
 AB E6 83 EC A5 59 BA 5E 61 49 04 AE 5D AE FB FC
 8B D1 86 5A 5B 26 75 3B C6 6D A5 4E 67 6B 35 0F
 D2 5E BB 1B 31 C6 BE 5E 2B 2B A5 8E 4D 18 CF 30
 D3 E9 73 5C 8D 48 8E 86 94 09 F9 C4 19 38 67 61
 96 D1 F0 AA 0D 41 D1 96 0F 26 3D 1F 02 3B 5E 7D
 FB 5B A5 C3 3B 5D E1 B1 8D 8B EA D4 5D E5 DF 98
 AE 8F 9F 25 DA AE 5C 1C D6 B3 17 69 A1 66 1E B9
 F6 1B B8 7F 9C 9D 7A 1F BA C3 AE 96 76 D0 60 B8
 03 EB DD BF 08 48 B0 A2 F6 79 86 85 31 7B 28 C3
 34 0B B1 97 23 A1 40 FE D0 F5 7B 1B 46 B9 1D EC
 D7 3B 79 CF E3 8F 0A FB F4 46 34 9C 83 6F 81 CB
 0E 5E 06 93 0C 4C 33 F8 8C FA 23 5D 05 3E FA C9
 53 D2 DF 9A 3A 59 CA 64 D0 42 FE A6 3B 39 D3 7B
 92 00 0F 6F 9C E0 5B 7B 18 B5 BF 0A CF 87 1C 7D
 E5 63 26 C9 2C CB 31 7F 35 86 14 79 69 69 2E 1C
 A1 25 A7 1F 79 9B 0B A3 BD 98 D3 6C 10 06 60 B9
 7E 9D DD C6 87 75 09 B3 D3 54 D3 9F 39 30 9B B8
 7C A4 09 BD 88 FE 52 80 11 14 DA 0F 16 FE 57 9D
 34 6E ED EF ED 72 81 2B F0 99 EB CA C2 FA 43 5E
 E3 49 6D AA AB F4 1C E0 DB CD CA F9 33 96 4F 4B
 68 2D 1B A6 36 D6 CA 64 F3 07 7A 03 E0 F3 D1 32
 7C 19 F9 54 1C 89 6E 66 36 B0 D7 04 88 69 85 DB
 17 C5 E8 4E BE AF BA 41 A8 0F 7B 52 9D AC 51 E8
 95 30 7E 6A C0 CD D3 4F 79 A4 6B 20 AC 1D 93 7C
 48 CF 3C FF 8B D5 B4 39 7D A3 CC 4D 51 F2 D8 D8
 24 D5 A1 C1 51 E1 AA F5 D0 9E 30 D4 F9 9E D3 D1
 0A C3 04 B3 12 9B 63 CD 25 24 FF C9 95 AC 65 3C
 ED 0B 12 8D 9D 19 72 17 C2 DC A2 EE 3A 71 32 FD
 C1 BA EE 40 0D AF DF 4D 2D 75 D8 3C 89 5E 80 9B
 B0 63 BD C9 07 BB DF 16 1C 86 78 94 DD E4 EA 00
 0C BE 53 EB 05 3B 8D 1C 79 3A FF A7 C1 A4 1E A7
 AC 9C F3 D4 CD F4 BB F6 A4 53 23 EB C2 91 18 CB
 39 49 1B 02 C1 61 3D 8E E9 90 C6 B2 94 40 4D E7
 E9 D6 7A A9 54 02 98 CF B9 FB 9D 60 AE 20 E1 D9
 0D 35 E0 F9 3B 41 C6 B5 40 57 87 DA F2 8F 68 3F
 ED 61 66 94 28 8F A6 11 7D 89 A1 BF CC 4B 02 C0
 F9 C5 07 97 D5 52 B7 B6 2A 7F E6 1B 50 55 AC D3
 1C 59 E9 2C 16 F6 6A 6F DE 28 8C 15 F4 EC 7F 47
 07 D7 29 C5 3E 4E 5B 66 3F D1 3E 1E 5A 24 96 E3
 03 55 BC 2B 16 E6 C8 40 DA EE 62 CD C2 67 EB 2F
 DD 26 4A AD C3 F7 41 CC D4 1C 69 F6 7C 95 A8 08
 E2 0A 73 00 3F 01 16 44 3D 9B D1 D3 DA 56 25 2C
 B5 B6 A8 F3 39 7C F5 C9 23 B8 FE 00 8B B3 D3 CC
 30 39 7A 44 A9 33 2A 47 F5 5A 3F F8 DC BD 64 63
 02 94 96 B0 1C 2B F1 71 90 95 31 F4 81 4B 6D EE
 0C 07 8B 0E 2E 8E A3 F3 BC B8 5A 55 2F 98 2E 63
 5B E8 68 48 FA 29 FF F9 F7 71 59 04 59 CE 82 5F
 EF 97 6A 0B E9 71 45 75 7D 80 0F DE F0 1D 97 87
 28 78 5E BB 72 90 F5 D3 31 FA ED FE 49 E3 1C 62
 7B BD 6A EF 64 B7 87 F4 C1 C7 3E AC D4 4D 96 4F
 08 11 FF 97 83 EA A5 92 93 F6 65 B2 9E 23 C1 67
 9A 89 02 D7 69 22 98 05 1D 86 9A DA 48 85 AB 9D
 11 B6 32 1B A9 F5 2E 39 48 6D D1 B2 26 EA 03 CE
 40 ED 7D FB 1E 40 1D 53 AB 39 69 DC 69 02 25 00
 26 E2 15 F8 44 E2 DD F3 75 B0 BE 52 49 95 83 D3
 67 1F C7 85 BF 8C 8A 41 87 30 4A 2C 22 5E BD 2D
 0C 15 70 CC 7A 25 08 F5 03 F9 25 F3 3C 47 B8 48
 E3 91 AA AB 1B F6 F5 74 24 AD ED 3B F1 1C 53 B1
 E2 66 C4 0E 1E 5A 8B 14 16 4D 61 D3 C3 D0 8D B2
 2E 3D C2 B1 62 D4 C7 46 A4 D9 2C 55 20 A3 02 2B
 43 5F 37 61 CA D0 96 EE 4F 94 97 99 E7 7A 5F FD
 4F 37 E7 47 2F 41 56 7C FE F4 2D 26 DA 58 20 BD
 18 E8 01 0E 3C 27 5F 7D 8C 76 97 D4 FF 77 4A 07
 C0 88 93 DB 74 1C E6 39 E1 73 67 DA 6F E0 F7 DC
 EC 32 77 93 75 46 6B FD 34 2C D1 F8 E1 6B 42 F0
 63 A2 51 C4 76 35 3D 6B B0 CC 3F EF B8 F1 8E 0F
 D5 A8 08 89 89 8F 95 B3 87 91 93 36 3A C9 8E 8F
 C7 50 8D 05 39 A3 DF D8 83 52 74 18 59 7A 02 A9
 40 93 94 37 8B 67 B6 C4 57 F1 B2 53 1C 19 A6 07
 48 FA BF DE 50 CF 80 F4 23 B3 E9 7D 89 82 B4 8B
 04 8E 0D E4 75 29 10 02 19 3A 33 82 F3 CA BD A0
 4C D3 5B F0 5C 2F 9F 10 F0 9B C0 1F 48 F9 C4 85
 44 B1 9A 44 CA 26 07 C2 00 E1 7D 8C 14 12 3B 65
 BE D0 B0 65 24 2D CD D8 1E C6 09 81 83 4A B4 3C
 F4 A1 E4 0C 20 BA 0B 23 83 EA 53 62 4D A9 39 2C
 2A 1B EB DC 3E 3D B8 70 AE 69 B6 05 DD F3 93 EA
 6A D1 E2 E1 1F 29 4F 52 37 6C 3A 18 3A ED 15 7E
 92 BC 89 CF E4 C8 68 CA 55 9F 04 BE AA 91 55 95
 5B 0A 78 94 4C 05 9F 3B 49 BE F2 A4 2C 0E 5A 28
 E7 FA 6E B8 76 C8 00 DC 6B C6 B7 53 69 B8 45 0E
 CB 20 18 71 2A 62 AB AB 8C 54 98 42 F2 C8 B1 22
 2B B4 16 B9 8F CD 58 DC 03 67 27 EE 70 2B 56 70
 5A F3 25 34 1F F3 0B 7A D8 39 CF C5 CA 7D 4D 95
 0A A9 4A 39 D0 CA 8C FD B9 81 72 61 89 D7 23 2A
 A5 1A CE 2B 67 9F 46 CA 31 32 E6 D6 12 8A 3F 33
 3A CD E1 55 70 46 17 04 87 E9 81 1B E9 78 7F 6B
 A9 E8 52 AD DE ED 81 DE B1 CD C2 A2 43 83 FC 2F
 96 CA 27 F2 EC 08 D4 DA 95 10 BA 8C 82 43 C3 B6
 4E DE 05 A8 71 5F 0F 69 A8 0B FC 34 D1 42 37 8E
 25 C2 88 59 95 ED 4F BF 29 47 24 3B 61 5B 67 B8
 FC DB 9C BD B5 19 C7 27 AD 7D 97 44 19 93 54 9A
 C2 21 E4 BD EB 79 39 7B 08 72 D0 14 1E 8C CC A4
 2C 06 9B 1B 8F 5A 28 1B 2F 39 E6 51 8F 23 F2 F6
 79 BC BE 65 CE 10 B9 AF 34 54 9F 7E 18 56 71 FF
 B0 A0 62 B6 AA 22 F6 E9 D0 EF E3 71 8C 1B 63 AD
 BA 94 18 DD 43 33 71 FA D3 59 54 F1 48 E4 41 C7
 18 15 E6 AD F2 AE C5 10 DD 65 9E F2 C1 EB 22 08
 01 12 6A D7 15 34 2A 90 3A BB 79 46 4B 39 A9 F8
 41 8F 04 CF 3A 1A AF 55 EE 49 CF A2 49 0D B9 48
 93 A3 23 BE 75 5B 00 0F 2C EC E5 C4 C6 1F CC 82
 9D A7 91 14 53 4D 78 97 63 6B 2B 53 FE 30 3E 1B
 C8 A2 41 ED C7 0D 66 4E B2 A9 A4 CF D7 9A 43 14
 F5 FE A1 98 B4 A3 55 A0 9C D2 E9 47 1D 3F D7 54
 44 38 B3 13 54 50 DD 4B BA DA 5F 34 AF 89 FB 3D
 54 3C 20 95 26 A7 B9 0A EB 38 FA BC 9F 95 C1 4F
 04 34 CA 4E 59 43 76 79 09 A7 5D 96 7C AD EA 8A
 70 C3 54 C7 BD 89 44 4F D3 9D 34 92 17 E5 72 5A
 F9 CB CB C4 BD 9A 0C E2 4C AF D5 B7 31 56 5D F6
 35 91 BC 54 50 88 94 EB F2 4F 4F 07 0C 8F BF B7
 CB B5 B9 34 86 BF F5 3D 7D 8D 75 75 4B 15 9D 4E
 0F 5F EC 91 DB 87 BA 7A 49 45 54 7E BB 00 F8 5B
 24 85 BE 03 0D 42 D8 48 69 BF 88 7F F9 58 B5 84
 7B 82 18 65 21 57 2E 9D 9C 47 13 06 ED 10 D7 25
 17 F8 BF 87 DD 2E B3 8A DF E6 A3 F5 FC 63 46 31
 58 2B 99 33 72 E3 AA D6 F0 B9 37 73 C0 10 77 F9
 67 DE 1D FF 6D 8A 19 73 46 E1 7A 57 2B FB 21 6E
 D7 9C C5 D1 BB 48 74 2D A3 E9 DB 57 FB F0 2B 7D
 72 B6 67 AF D3 DC AD 65 75 9B F4 C3 27 40 11 89
 49 34 B7 32 74 A2 FA CB 00 9A FF FB AF 0E 70 9B
 EE 78 AD BA 83 A5 DF 25 E1 9D 42 1F 64 79 2B D4
 62 45 96 62 0B CF 5A 0C 1D E5 5E 1E 93 0F F0 B7
 44 63 22 F3 FE E0 48 31 3A B5 3E B9 C6 CA EF E9
 14 BB 6D 28 99 E6 F8 0A 05 10 2F 24 B0 E4 01 56
 6C D7 6B 44 05 D0 AB BF 4D DB 6F 17 6C A0 DB 12
 1D 92 76 57 35 86 ED C3 A7 9D A3 0C 05 5A 85 99
 8F 96 C0 57 CF FD 52 80 3D 69 CA 53 6C FC 26 4E
 CE FE 92 79 84 F9 C0 56 F5 EC 58 BA F9 69 80 23
 EA 7B E4 C4 F0 D4 15 2B BC 00 6C A6 A2 A7 44 95
 4B 2B D8 DB CF 04 B4 46 17 9A 78 17 C5 87 A5 E3
 E4 FF 95 A9 97 A3 59 E0 58 47 A9 DE 1B FF 4E 3C
 FA 2B 98 FC 1E B3 C3 A0 AE BF 32 DC 19 D7 48 4F
 A4 22 BE 82 5E 7F 91 45 03 10 8D 4B C0 2B 15 FB
 7A CF A0 08 E0 9C 7E FA 9C 03 9F D0 C6 1A 78 3B
 2F 14 06 5D 96 92 8C 53 C3 1A D9 CA 5B 27 D3 9A
 E0 1C 6D F2 A7 5D C0 91 3E C4 46 93 25 3C 3D 7B
 03 94 5D 9D 4A 55 6A 77 FB E6 B3 B9 4A F1 75 75
 3F 1F 91 CE 34 82 22 22 57 01 E0 FA 5C E4 1F E4
 C4 D7 82 1A CE A8 84 5B 29 34 A6 49 F9 F7 15 D3
 BE 44 41 88 86 A0 C6 D2 1E 79 4C 2F C0 B1 2E F4
 77 84 0A BD 6D 9A FB 53 25 F4 2A 8D 20 33 D3 3C
 85 02 0B C6 43 76 61 DA 04 32 8E 17 95 1F BC 57
 F1 71 52 D4 F7 8D 8C 21 26 27 1A 34 3A E8 F0 62
 F5 13 8E DC AE B3 B0 12 AE 4A 5C 22 D8 19 8B FE
 31 7A 73 A4 E3 1A 76 4B 0B 7A B4 17 47 DE DD 41
 BA 7E 9B 44 92 3E A0 CA 5C C0 90 36 A6 A9 A6 33
 DE 1A F5 26 C8 77 C2 FD 2C 18 57 E7 C2 F4 54 DD
 3F E0 D2 B1 33 2A C0 BB 1C FD 23 D0 3A 19 23 4F
 63 3B F8 FB 7A CD 8B 1E 0B B8 5E E8 53 9A E7 1B
 31 86 D5 B5 00 7B 32 29 D4 85 6B F1 4F 1C 1E D1
 66 23 69 2F 1E CF D2 90 6D 30 14 E7 E0 E3 03 EF
 5B A3 0D C3 BE 1B F6 58 A3 E6 0D 54 9E 6D 22 33
 81 5E DA 10 76 7C AF 8D 51 7C ED BD 78 DA 7B C0
 1F 7A B9 C3 19 DA BD 83 61 C4 C0 3F A2 DF 37 5D
 67 92 F4 E6 69 10 D5 73 02 F0 D4 3B E4 B9 25 C4
 05 66 CA A6 51 00 5A 83 F0 8D D1 FB A2 37 DA 44
 CF D4 B6 8A D7 EA 4D CC 36 70 6C AD 90 F8 85 84
 24 13 43 45 0C 62 B8 49 85 F2 EF 66 ED C4 CE B7
 7B 37 DC DD 02 62 08 03 B2 17 3A 7E 75 1E 23 E2
 96 B6 FC 17 25 60 DC 89 BF D3 7C 1A 4D 71 84 2A
 1E 41 11 CC CF 17 3E 0A C2 86 44 E4 E0 CD ED 98
 D1 3D 75 B4 67 24 CE E3 15 AD 52 92 3A 79 0D 9C
 1C 8A AF 7C 27 6C C1 DB FB CA F7 70 23 DC A6 95
 96 29 EA 10 60 DA A9 B0 D1 1A AC CE D9 A0 A7 57
 A8 FF D0 89 DF 7D 95 9C B5 64 97 EE B7 7E 55 04
 7D BA E0 A6 94 12 47 5C 00 54 70 BF 00 0A 47 BB
 0E 7C 13 E7 70 C9 28 33 58 29 86 C2 8E E1 46 40
 03 F4 A7 8F 1C B3 97 BC 0E E1 01 A6 1F D3 2C DA
 37 D3 68 D1 2B BC C6 D4 63 E9 DD A2 DC ED E2 51
 25 70 16 ED 77 9E C6 19 65 BB 1E 95 F7 8D D9 D5
 86 6A 14 6E A5 A6 BC 04 79 42 50 F7 D9 0D CA 08
 45 17 EB BE D8 4F 54 0A 92 21 46 36 1D 56 2F 6D
 55 69 A7 62 F6 3B B0 C5 88 28 2E 04 D0 87 1B EE
 C8 13 48 21 94 8B 60 1C 4E CC 99 0C FC 4D 5A 65
 2D 86 CD CB 5D EF 8A 37 B7 4B 0C 72 25 ED DB 8E
 DB D0 D6 A7 20 44 09 86 15 72 EC 92 F7 C8 22 E6
 86 6D 35 74 1D 2D 75 A3 85 D5 39 B8 94 C1 84 73
 EA 02 C1 40 A5 A2 1D EB EC 4C 9B 9D 93 5A FF 7B
 C0 47 81 6E F7 03 AD 74 C7 D2 71 B1 E9 0F 20 29
 03 A0 AB 86 E9 11 67 27 56 9C 41 04 C1 BC DE D6
 FC 69 A4 5A 91 AB E8 9E 51 C6 BD 27 A4 7B 89 58
 24 4D 40 ED 81 38 C8 9D 58 16 79 8A BE 16 46 F7
 05 BE D0 4E F2 40 AB 74 E4 67 9E 87 5D CD 02 E3
 4C CE 5A E2 33 5D CA A3 2C 03 01 C9 B7 77 8C 2C
 9B F0 6B 34 76 4E 95 B1 9D 8A 5C 2F 14 0F 58 9F
 61 AB C9 BF 8B 01 36 3D 3A 10 5B B8 7E 60 56 F4
 0D 4E 5B 7A 05 8B 69 75 43 F7 A7 03 B8 3B 32 5C
 0B B3 70 F6 EE A7 F0 46 BE EC 89 41 00 05 E6 17
 87 6F 79 86 DF D7 B1 9A A7 8F 33 69 63 2B FD B2
 63 3B 29 1D EB 16 A4 08 43 0E BC 44 57 7D 9C 85
 4D DA 77 11 BC 43 FF AA 78 33 60 C5 80 42 87 08
 DE B7 3D 30 94 39 22 3D CB 6E 0A 36 F6 72 91 EA
 7F 3D 2B 82 B7 64 AE 5A 4B C5 B2 F1 86 D4 2A 5C
 50 B2 D6 DA E6 E6 C9 3B 31 88 85 CE 90 6D 98 9B
 40 B5 6F 3A D1 C4 6F 74 60 9F 48 0E 4A 11 E5 10
 67 F1 E0 00 C0 E1 88 7E 92 D1 5C 4F 7E 72 E0 8D
 1A 17 F8 45 16 55 09 CF A5 8E 25 2C 5E 44 F7 CA
 AB EC 35 52 55 29 08 25 1D F1 47 BB 68 FA 9D 4B
 E7 E5 BA 96 03 B2 A5 A6 20 C0 B1 F5 2C BA 94 09
 6D 47 24 9F 8E F7 08 D1 E4 24 DB 4E 80 7A 3B AF
 9F D9 A2 3E 2A 72 D7 92 58 33 9E 08 60 CA 77 B5
 EE 3D 04 C3 F6 93 95 BF D6 F5 A3 F6 20 D1 AB 73
 4F 12 65 B0 62 BB 13 15 E8 8A 19 77 CB E3 2F 96
 B6 49 CA AB 57 F9 DA 4B 50 60 31 1C 7B 26 83 42
 35 C2 19 F8 BB 0E 5E 9D B0 1B 7F 88 01 53 04 CC
 B9 03 53 9A 12 48 4C C1 50 00 53 3B 4C EF 98 9C
 CF 50 E5 51 A3 32 89 FE 2A 55 5D 4D E6 99 23 A8
 07 EE 9B 23 1B F8 4C 7F 27 1D 8E 0C 91 A3 F9 26
 71 5A 42 0C 8F 4D 3A 21 F6 C6 38 48 7D 7B 1B 4D
 AF 1E 92 D0 C7 40 43 5E 56 D6 A2 14 5D 46 DE 76
 4F B2 94 F2 F0 B8 E3 1A 31 1A 11 CC AC 43 DC 5B
 10 90 37 6B 17 56 A1 BA FE B0 80 B0 95 3C 54 EE
 CC 7F 42 BF A3 43 30 BD 48 B5 70 2C 28 7A 6E B1
 7D D6 E9 CF 95 B0 BB 2A 67 0A B2 A3 32 1D 67 97
 23 57 53 9A 4E AB 2C 72 49 17 83 77 55 30 1C EA
 D1 6A C1 C3 83 5C 04 04 A6 97 08 44 62 62 62 FA
 AD 1B F7 6C CB C9 21 E0 CA CF EE 61 38 75 AD 86
 5F B1 10 A6 66 58 79 FA 06 12 4E 7B F5 D1 9C F7
 3A 4B 0E B9 24 09 67 98 EB 23 45 4A 03 EA B8 71
 84 C8 7C 72 98 E6 FA 4C E5 6D 27 8D 7B A3 8D 22
 78 AB F8 D6 FC F6 54 E0 44 45 86 CF 99 B1 BE 10
 9A 55 20 A0 81 F0 E2 5E 57 9B EF 55 42 BB AC E1
 1F 8E 6C 42 58 5C 2E B2 F1 D5 6A 67 ED A1 47 26
 62 53 65 47 F2 24 DC D5 D2 51 C7 B1 92 ED E4 9D
 4C BB AD F1 62 FD 94 0F 73 ED E2 E1 BF F2 1A DC
 A7 9C 27 ED E4 7D 21 8C 71 B3 C4 35 C9 D7 AD 88
 32 36 EA 35 43 EB FC 43 8C F1 2B 2C 13 99 95 27
 EE 8A 08 67 13 8B 90 D0 BF 02 23 5C A0 F3 6C A6
 87 32 89 63 1D 7F 68 6D D5 6D 83 E6 E7 01 A3 F5
 52 BD 0E 25 C7 9B A4 1B 9B 0B 75 3B 54 16 41 60
 30 DC D5 58 C6 4D BD C6 1E 55 98 F0 CE 0C 44 98
 35 99 2F 58 8C F6 D7 86 7C 45 98 4F 40 33 AE 44
 EF 4E 51 3E 47 7B 87 A1 32 A5 1E FA D7 20 AA F8
 87 C8 03 62 12 DC 7E DF 44 4D 52 CA D6 E5 8C 9F
 B2 AC 33 9F BE BB 63 74 93 B2 9B 1B E6 72 36 71
 FE 4D 59 99 D4 B9 07 CC 92 0B 63 2E 2D 72 69 46
 2B C8 E3 7C 8B F1 61 C6 99 8E 3F AB DB 43 3D 9C
 43 56 F8 18 AB 77 4C 89 9A AC B0 F4 16 2A E6 63
 CA 03 79 7F 8C 1F A8 E6 D5 76 BA 0A FE 54 BE 61
 A4 BE B4 A5 CA CB 5B 37 2D 10 FB D0 FD DA A7 3C
 69 3E DD 38 6C CE 28 CE 58 5C 0C 64 5A 15 9E 83
 12 DD 8B 73 20 4A BD 42 BB 77 60 0A F8 D7 22 3A
 D2 8A 54 82 BA 3E 45 40 D7 35 45 8D BC 74 62 DD
 94 EB AA BA 36 7F 22 F2 EA DF B8 F4 1E EA B3 85
 C3 D1 21 E3 FF 53 3D D3 FF CA 89 DC 37 59 0B C4
 4A AC BB 6C 90 56 03 CC E1 B0 DB A2 04 22 7B 3D
 D5 41 18 23 20 93 9F 70 EE 5D CA 27 EB A9 35 0A
 FC 14 F8 28 63 A2 56 A2 5C A6 BD 40 36 CD DA 5A
 3D 62 19 08 CB A6 13 11 2E 36 3C 59 34 91 90 72
 03 46 EA 0C F4 12 4A 83 A4 2D 7D 23 D7 C5 45 A6
 9E D7 0A FC 1A E0 31 25 25 1B 40 63 F0 80 6C A0
 6B 7D 13 D3 6A 76 37 C1 BB 1D 64 60 75 10 1A 1E
 FC 23 4A EB 8C CF D4 BC 54 E4 92 CC 92 CC B5 15
 4E 1B AA 34 CE 3B D2 D2 8B 35 6F FA C3 F7 B0 8C
 A1 CD B6 44 52 2E 0E 40 D6 FC F2 C1 3A 42 E6 E3
 51 A0 53 40 E1 71 DB 89 C1 6E E8 A3 C5 C3 07 04
 CE B8 10 96 3F 81 A4 4A 3E E7 AB 31 91 0D E8 06
 1F 9F 98 F9 F6 90 5C 51 CE DB E4 37 1F 6B 55 FA
 A7 A3 DC 4F B1 0F 49 DE E2 48 FE EA 6E 8D EA 00
 99 E4 CB 11 C5 93 1A DD 58 D5 41 25 DB 29 35 61
 03 0B 49 A7 63 16 63 55 79 7C D5 38 C2 1C C9 74
 A8 70 52 D3 63 D5 69 4C D9 13 CC B7 CD 2B 33 A5
 DD A8 6E 79 76 A3 F0 D6 48 30 D6 EC 52 BB 9A 67
 5B 01 29 54 AA 78 D5 FF 99 F6 7D 57 ED D2 34 0E
 37 59 CA 02 8F 4A 0A 84 C8 1A 34 23 5E B7 C0 44
 1C AB 48 7C 3A E3 96 78 89 C6 85 1A B1 41 64 53
 5C 2C 44 29 25 13 8A 1A 14 0D 7F 8F 04 83 B0 A7
 BA 7C 91 14 5D A4 CB A0 A3 32 7E 0D 10 EE CB 81
 7B E5 21 CD 0B A4 B3 95 85 96 CF 8A 72 0D BC 5B
 B9 CF CF 0A 16 DA 4C FE 83 60 49 FB 64 96 71 75
 E2 4F FE 12 4B EA CF 35 F7 AB 06 D3 FE 83 0E DB
 C2 16 4A 37 33 9A DD 7D CC 4D 39 F1 BE 10 D6 D8
 D4 E2 16 02 54 5A 1F 20 70 EA F6 F0 8D A4 88 0C
 89 FD 3A 86 98 3D 2C 3B 08 B7 B1 3D 9B 72 86 2E
 44 C1 8B 9F 74 E5 9D D5 2A 96 76 05 B5 13 49 0D
 F2 8B 2E 11 D1 5C 09 3B B5 48 E9 85 E7 A0 34 16
 E2 12 F9 A0 0B D4 43 D0 97 35 DB BB 8C AB BC 72
 EE AD AA 58 21 CC FB 16 32 FC 73 90 9B E1 49 FD
 87 AF 57 41 2A 2F 03 67 6B 19 C2 2A 17 DE 5B 42
 37 6C 0E AF 32 E9 D7 31 EB 9C E0 F5 3A 3B FD 0E
 D4 8D C3 C4 1D 40 D7 C7 5A 44 1F A9 24 DB C5 43
 56 E5 BF 84 3E 0C CC 9E CE 30 AD 8E B4 B9 99 BE
 1A A0 2D 10 3C 89 8E 3C 35 27 9F 11 B2 3C EB 5A
 5E 71 C8 C8 28 2F 97 63 9B 2A 00 55 52 82 A6 BA
 1C D7 6F 67 61 77 A8 B3 FB 04 A6 1E 6D 7F AA F8
 8A 3D 80 4A F0 C2 4B CA C8 08 6A 14 57 AE B3 52
 35 DA BF 2E EA 12 1C E3 02 3D 3C EA F0 87 1A 2B
 EF 0B 41 F6 A4 E6 5B BB 57 80 DE 0B 99 56 C3 5A
 8C 17 8A B5 1C 8B 54 02 BE 95 4C 1B E3 A9 FF CE
 A1 A5 82 AA B7 C1 94 35 36 A0 84 DC 2A E7 C4 53
 28 0B 4A 0A 84 E6 F8 5B 1E 5F 3C 8A 6A 36 68 32
 C6 B8 AC AA 67 9C E6 2C B4 FE 9D 39 F3 3E C2 24
 F6 DA AE 0F 43 13 17 6C CD C4 C9 BE 59 1D 33 C4
 E6 9A FE 51 88 43 E5 22 4D F0 D9 70 3B 6B 54 3A
 B7 9F 82 08 83 09 7A B0 E1 2A 00 19 B7 7E 78 74
 CF 1F D0 4E 25 91 F9 BD A2 48 81 24 B3 93 28 99
 82 ED 15 00 61 8B 86 00 96 18 85 9A BB 9B 08 A5
 FD 6F A0 2F AC 03 3E 29 56 E1 4A 7D C0 4C A4 87
 C7 F6 F4 A4 0F 1D 8A 9D 6D 3E DF 05 FD FB 35 DD
 EE 31 01 7D 34 10 1E 79 10 2D 4A 10 54 8E C0 E3
 BA 7F 6A 63 91 3D 71 A7 F1 EC DD 52 FC D7 04 1D
 ED EC F9 BF 68 66 1C 14 07 50 45 23 60 7B 5B 17
 F5 A3 4A E6 FA A3 C5 7A 80 8C BE B1 00 20 9B A0
 01 15 0F 56 B9 14 86 2E 04 DC EF AD A7 26 A9 58
 F2 8E 18 D8 AE 66 1F 64 2B 01 6F E7 23 0B 3E D1
 0E C6 9B 8A E1 B3 60 11 2F E7 22 54 3B 9B E2 C3
 18 2C 1B A4 8A 09 C7 76 01 F0 C3 7F 89 8F D2 B3
 7E 2E F9 95 73 F6 05 B6 49 0A 70 32 8D 44 48 84
 E4 C2 AD B5 97 AF D9 F6 16 A3 5B 4D C4 87 F4 2C
 BA 3E 2C 4A B1 59 92 BF 53 1C 3B 14 77 88 4E EC
 10 43 4C 64 71 1E 77 08 D8 50 DD F0 5F BD 03 F2
 21 DD F8 84 AC 56 4C A5 F5 07 B4 26 A8 EC 20 67
 0E BC D1 A5 54 AD B4 40 2D 01 0C D0 3A 04 D9 65
 AA 08 42 A6 02 37 DA B7 8A 78 56 2A 92 94 2B 33
 95 7E 99 9A E6 BF 8D 6A 6E 21 9B BE BB 07 36 02
 CF FE C0 FD 30 A1 91 C5 2B 02 63 00 90 0A 97 D7
 44 B6 28 3F 80 1C 9A 60 7C 8F 08 48 30 CC AB 3D
 9A 28 AD 0B BF DE E9 CF CA B5 6F C3 A0 ED 8A B3
 11 AA 20 FF 44 F1 68 D5 34 73 D9 1E 28 06 9C A8
 C6 BF 22 5C DD F8 BA AE CA 74 6A BD 05 4F 76 7E
 FE 19 0F 42 9B 1C AB 64 46 67 C2 C4 37 EE A2 10
 06 52 A8 02 56 61 3A 8B 8D C0 CF 4F 04 EB 2C 03
 74 5A 57 8E 00 9A CD 3B EE 7E AE EB 9F A2 1C 3F
 DC 88 9B 12 71 2B 05 2B AD ED 0D 4B 3E A6 16 26
 1E 32 33 56 89 6C D6 CC 57 CA EC 1D 67 00 6D BC
 81 DF 0F 74 64 58 9D 88 3A EB D9 CA 72 7A 30 36
 DD 17 C9 03 3D 00 12 91 08 02 C6 29 ED 59 7A 60
 17 E8 6F F3 A7 98 5B D5 F3 B7 06 E2 D9 55 9C 7A
 BC DB EC E7 B9 04 74 C3 A8 78 9D 4F C7 4B 50 9A
 BF 53 50 9A B1 46 38 3C 3E 56 7A 7E 5F B6 44 FB
* End 3796326773 121990468