* LTspice Encrypted File
* 
* This encrypted file has been supplied by a 3rd
* party vendor that does not wish to publicize
* the technology used to implement this library.
* 
* Permission is granted to use this file for
* simulations but not to reverse engineer its
* contents.
* 
* Begin:
 22 BD C9 7C CF 3C 74 07 16 C3 25 51 1C 61 92 72
 81 D3 5F 3B A6 31 5F BD B9 AE 91 F5 71 11 E7 54
 81 7B 3A 26 9A 87 92 59 78 CC EE 8A 24 D8 3B BD
 A3 5F 17 9B 7F F2 4B 57 C7 95 56 C2 48 7B 0B 42
 DE 7E B4 C4 28 D5 60 5A 5C 20 C8 0B 1F 34 96 DD
 82 FA FD B5 58 0E 51 9C A7 A7 2C 17 7F D3 20 28
 F0 92 C2 DC 66 EA BD F9 65 39 82 6C C1 D4 ED E5
 AF 49 89 99 CD 43 B0 18 CE 78 C9 E0 A7 47 93 C5
 D6 94 66 70 DF 13 F8 E0 33 61 9B E6 D3 F0 F3 CD
 3E 9D 30 81 65 4C 2F E9 97 78 1C BB 47 7A 3A D4
 CD 0D 23 6B FB 1A 4D 42 15 68 C9 91 65 95 6D 0A
 72 83 24 6D 9F 8F C8 47 51 E2 B6 DA 96 DA 8D BC
 19 99 11 65 AA A9 5B D9 C8 5E 54 2C 36 15 6E 14
 1A 21 44 1F 9F E0 81 E4 89 3D 71 EB 86 F8 AF CC
 CF 81 EB 2A C2 A8 F2 48 16 8D 80 7C BE 71 9D 0F
 6C B2 DB 43 EB C5 73 04 88 4B 6B 3F BD C7 7A 60
 D0 11 35 D4 E6 6F 79 04 99 BF 69 E3 D0 9D CD DA
 75 B8 09 E1 32 51 01 53 BB 51 5F 71 2F 82 D9 4D
 E5 83 A2 D5 3E E7 21 18 81 A0 51 70 3A A1 6B E5
 9F E6 14 88 90 DC 71 EC 79 EF 83 9E 44 10 84 C5
 13 53 F7 77 96 75 48 B8 E0 9D EE 43 16 BA AD 54
 71 11 F6 87 28 E5 5A 87 2F 7C 8F 35 86 6A 23 56
 2D AC 1D C2 A3 2A 4D 6A 62 54 F1 7A DF FF EA 25
 60 A1 29 D7 5A 1A 2D 6C 26 0A 71 FA 6E E9 1C 1E
 C1 41 11 FF 96 A9 C3 5C 7A BD AD 27 05 38 9E 18
 A1 D4 73 B3 53 07 F4 BB E6 B0 E8 12 38 A9 E8 72
 1E 78 E3 F9 F6 40 BE 03 86 12 E8 9E 79 17 71 EE
 40 27 9A 28 93 8B 60 1A 20 F8 FC CD 8F CD 00 63
 2A FB 4A 3C 5B B2 96 DA 2C D5 FD 18 B4 35 15 B3
 0D 92 43 BB 49 AB A6 26 E4 83 69 6A 0A 18 91 DE
 A8 6B 28 1F A9 42 31 43 CC 6C 34 47 9C 63 4A E4
 19 0D 78 7B 8D D3 B2 A5 C9 F0 5D CF B9 82 60 88
 98 AA 79 07 BB 9B ED 3E BA 10 88 FE 78 0A C4 EC
 81 61 95 CF 9E 4D A4 F6 5A D8 4E 18 EC 56 51 49
 EE 8A EA 37 DE 0A F1 D6 26 12 2B E5 FD B6 A8 7A
 85 15 5F 31 3D 59 EB D7 0F 6E B8 5D 30 23 6A BB
 6C 31 F8 5C 29 4E FF 6E 86 81 FE 2A D2 7E B3 D0
 5C F0 E4 87 E9 C7 39 2F 17 FA 1A 97 58 EA 81 95
 D6 0D E3 06 64 1A 57 B4 BF 16 D9 73 32 D4 7C 01
 EE 5C 4B 22 A9 E0 69 D1 79 34 AC 75 93 3E 1B 19
 D8 4C EB 80 88 25 C6 D4 43 4F E1 9D 74 57 EC 40
 38 8A 8C 29 72 A9 02 85 3A 6C 8F BC 3F ED 13 0E
 B4 2D AD 9C B1 46 6E 79 BF 80 93 0B CC 9F 81 C1
 FD F9 48 A6 80 D3 8C B9 54 DA CB A4 D9 E2 F7 C3
 1C 22 F9 22 63 F6 2E 9F BC AD 0C 44 1D A4 97 1E
 F2 2E BC 38 8A 75 C7 96 DF 99 19 1C 2E 24 FB 8A
 FE F0 6A FA 69 4A 64 68 10 84 02 E2 6A 41 D4 08
 DD D7 F4 03 D0 72 80 1C D6 87 0F 2E E4 13 7B 66
 7E 42 B6 76 D8 5F 63 6A 1F BE 57 AB DC F3 88 7D
 0B C0 46 86 6F 1A B1 86 B8 E7 9A 4B 6D 91 F9 76
 E0 FB 89 80 CF 7D 0D 43 FC F3 75 54 11 DF 2D 95
 70 E4 66 53 AE 5F DA 83 10 03 89 97 14 6C D1 F9
 C7 7E 0B 04 5E A9 3F 34 BD 40 56 0F A6 78 E3 21
 EF 29 7B D1 D4 C9 37 99 87 EC FE 0C D6 AC C1 53
 F8 6E B2 06 E9 DA A9 52 09 08 BE 56 EA 59 1C B1
 A9 35 1F 30 42 10 EC 5C E8 05 B9 EC 1F 9B 93 E3
 83 5C 32 79 86 B0 1F CC 11 D2 6D 35 63 19 B3 33
 14 A1 6A 1B B9 5D 6E C3 C7 C3 4C 8C A3 AD 3D D2
 6B 8A 7C E1 C6 EB 3E E0 54 35 20 13 07 57 EA 0C
 5B FB AA FC 9E 67 7D 9E 44 4B B8 07 AA 3B E5 07
 31 8C 48 D5 C3 64 DE 5F DA 23 3F C4 8E D3 20 22
 26 06 27 FB 9E 51 A3 99 83 4F C7 CA EA 09 47 37
 6F 1B 08 06 F0 61 87 C5 D5 F0 29 B4 89 EE 8D 06
 FF B5 F1 34 3C FC B0 39 A3 1F DA 01 9D D7 90 53
 22 7D E3 44 0B 77 C4 92 5C 4C 91 3B 77 7E 26 04
 D3 F9 1C A3 BC 7D 0D CB C8 2B 49 81 51 4B A4 73
 80 BA A3 9F F3 3A 1D C7 B4 1C 5F 8C B0 AC A4 0E
 C9 45 88 61 8F BA DE E9 1D 41 C0 53 69 6D C9 23
 99 E5 54 6B 1A AA B5 76 B0 E7 11 88 CE 2D E1 F6
 0C 50 1B 51 39 5E 40 B0 51 35 F0 E4 DA EB 00 C3
 8C 78 1E 1B 11 51 4A 21 7C 78 2E 95 08 A1 49 8A
 6A DF E0 9E 50 76 D6 FD 47 2A 62 81 BF CD 03 E8
 00 6E 9E 54 93 8C B7 1C EB 2A 9D 31 91 4E 8B 42
 33 11 83 45 C1 B3 63 F6 0B A3 B3 EC ED 89 E9 C3
 1E E7 FE D8 91 E0 50 71 50 8D E0 66 1A A5 C1 FF
 D1 05 F4 C0 14 C3 BB 20 12 AB 60 F6 15 04 DA 63
 A6 68 FA D1 57 4F DC 25 B6 D0 5D 58 E8 FF 63 27
 4D CF B6 04 EE 7A E8 88 33 9C 2A 68 84 BF EF B1
 FF D4 48 FA 24 06 8C 23 A4 6D 3C 67 4C FA 65 AF
 EC A2 20 13 7D 42 42 85 B0 89 82 09 DF AC 69 E3
 6D 44 E2 9C E0 CA B2 51 F8 63 A3 41 E0 80 A1 AF
 79 E0 7E F2 71 1A 2F 67 5D 59 53 7E 65 C6 FE AD
 44 FB 71 3C F4 E7 27 04 BF 1C 03 11 ED 69 7F DB
 0C CB 43 01 94 DD AE 61 33 8F 84 95 41 5E 06 3D
 D3 9B F5 F1 28 27 32 4C 48 F9 FF 69 D9 F1 BC 9A
 0A 3E 3D F9 AD 93 5D BA C6 1A 8D FA EC 2E 0F E7
 CB 22 1E DC 30 31 88 11 98 47 F6 E7 14 C3 04 2F
 3F 3D C1 E4 E5 00 63 B8 E6 43 1F 8C 48 31 5A 66
 9C A5 94 DF EF E8 AD 81 A9 4E A3 37 98 50 35 7E
 FC 72 52 A7 D6 1D 4B 16 DF 4F 66 1D 92 37 8E 5F
 DD 3B 03 B0 99 AB 9E F1 6F 3E 3A B7 4D 8C F8 F0
 83 55 89 15 F0 F6 25 F6 08 DC 71 AB E7 E2 B9 8E
 92 22 34 E3 FC DC 21 29 BE 29 41 BB BB D9 3F 69
 E5 74 0C 88 E9 6E 4F 38 93 17 A5 84 2B 44 B5 48
 23 4F 56 EA A5 91 5D 84 B9 57 B6 60 39 FC D4 91
 D7 45 60 17 31 62 11 D5 20 12 BF 3A 2A D5 0D 87
 A5 69 3C C4 26 D7 90 5D B2 95 5B 9B BD 2C 96 54
 78 15 D7 CE 6E 88 A7 85 E3 6E 0B 3F E3 13 62 56
 F6 58 4E 8D A1 4F D3 26 4C D9 F9 18 35 38 65 96
 34 DB DC AC 27 F0 EC A4 37 93 EF 88 D5 E7 D3 09
 60 C3 DF 42 31 E9 3A F1 54 0B 1C 58 9E 08 78 E0
 9F 53 42 00 36 38 14 77 9E AE 97 DE 56 9F 67 CD
 06 61 6D 91 B1 BF F1 E4 D5 BA EE 36 AE 09 78 73
 A0 72 31 31 6D 41 16 8A 19 4C D1 3B D4 AA 9D A0
 FB EF 38 C1 D9 5F 0D 80 94 A9 3A 0C 9B 9B 25 35
 04 60 87 27 4B 6C C2 D5 BB 23 98 65 62 0C C8 8D
 E9 F1 02 CD A0 1C 43 D3 E8 5D 4B D7 10 4F 87 D0
 2D 84 81 BD 3D AB CF A9 35 00 ED FF E6 66 33 81
 17 7F BD 32 1D B5 2F 63 28 99 8C 76 84 56 7B 61
 A4 7A AE 86 22 EC E5 F2 54 50 7C 14 72 E3 9E FC
 C2 9E E7 F3 41 46 37 0E C1 89 71 B2 14 58 C4 B4
 B4 17 56 62 00 DC BB 8C 0B D2 66 B0 F6 E9 D3 89
 4A 5E 81 0A 74 2C A6 DC FD 56 80 23 67 73 B7 C0
 08 5D 84 61 7C 5B 29 92 DC 1B C3 64 94 FC 95 22
 0E 7F B9 47 A9 74 44 D4 1E BC D6 C4 96 C2 8E 99
 6E E7 2A 33 F3 E6 A9 4F 0F 16 9C A2 58 47 F6 CD
 C6 19 74 EA D4 D9 67 9B 72 F7 A0 D4 D9 E8 F6 E1
 89 94 DD B2 6F FA 59 6F B3 2E 28 DF 9E 30 FC D4
 76 70 9F 0C 16 C3 A1 DF F3 44 3B DD B2 65 D6 57
 EF 5C 60 F9 BB A6 28 6B 05 0F 0E 79 A8 ED AC 4C
 97 18 66 17 F3 86 54 B5 6B 5E 89 EB B2 EE F3 49
 4F 1E 3E 36 FF 9B 9E 36 B7 F6 1A BC B3 F2 81 A8
 F6 61 95 A9 DC 99 B8 7E C9 3D A3 6A EF 1B B8 F1
 72 43 81 71 9D 0B 18 C9 F6 86 1E 9B 75 18 22 F9
 4D 73 F0 1E 00 99 CD 16 CD A3 D3 9B FE 02 89 BC
 45 08 00 CA 9B C7 FF 6B BB 7F 35 14 91 63 CA 8E
 64 9C 30 57 A2 1C 1E 98 25 CF B6 F6 E1 03 D2 D9
 29 7F 4E A2 51 3B 14 8A F2 3F 51 08 DE 2E E4 96
 F5 DB E3 4D CB 08 A3 8A AE E7 26 7B 9A 12 8D B7
 07 5A 10 A0 8F BB 9C 1B 28 B4 DD 0B 2B C4 69 F7
 39 6E 7B 61 92 2C 97 F0 3B 8A 5C 96 72 DC 35 E3
 8D 50 A1 AE 6E FF B4 7C F6 63 74 83 23 D7 25 84
 C6 26 32 E3 3B EF 92 FA 03 1C 20 BD 66 8A 1C C4
 89 45 3A 8D D4 8C A2 8F A0 64 C7 C0 CA 3B AB B4
 27 E9 C7 7C C3 E8 B8 1C C5 C8 A8 F3 8B D7 39 F0
 5A 5F 05 C7 A0 73 98 BE 2B 54 BE 8E B9 DA B9 0D
 11 A2 D7 23 2D 45 71 1E 43 90 18 14 38 35 5F 54
 50 9E E0 CA F3 A3 DD 63 89 81 32 D0 6F 72 BC 87
 A1 5A FB C6 46 3D 91 87 3F 57 65 7F 6A 6D CF 2D
 08 86 F2 A2 06 16 F0 2E 14 B6 B7 21 9B 22 A6 3A
 7D A8 E1 93 86 64 A5 FD 4C 36 90 2B 16 BF 66 69
 8A 62 8B B7 FE A6 43 7F 6F D9 39 98 8E 5F 8F EC
 04 BB 23 29 C4 6C 64 26 6F D2 4E F9 6B A4 B4 BC
 07 CB 19 FF EE B3 02 BA F7 D5 6C 5A 86 8A 76 73
 B8 04 60 5C 53 62 DA 7C 73 CF EE 74 3F FB C3 FD
 FD CD 12 A2 CE 01 E8 30 64 68 76 C5 EA 76 92 83
 B2 5C FF 4E FD 33 FB 53 4F 50 ED 39 EA D7 63 CE
 92 50 26 89 3F 22 26 38 E9 57 46 53 AC 9D 7D A5
 9F A6 E8 4A 8B 56 CA 76 39 A0 80 CB 2C 97 30 83
 A8 85 A3 2E E8 D8 BC 2E 5E 4C F5 0A AE E3 48 EF
 DE C1 60 91 44 27 35 FF E9 10 1D 65 82 8B E7 8C
 6F 4B E9 9E 40 7B 9C 45 84 C5 62 56 8D E1 BF 45
 AD 51 C2 2F CA 69 FD 5E 9E 80 50 74 38 8F 93 52
 97 A2 0E CD 10 9F C8 FB 6A EB 50 E8 7A 0E 99 70
 53 04 D3 1B 03 55 7A 1C BD 83 5C 80 C5 8C C5 5F
 BB EB F9 77 54 F7 F4 B9 E3 75 22 9E AD B6 B7 92
 45 C1 0C 89 53 89 E8 6E 15 B9 B6 82 50 DB ED 33
 DA 59 D5 9F 98 10 B4 E1 6C 1B CE EC E3 F8 13 3E
 5C 38 E4 3D 1A F3 DA 5A F0 92 E2 B8 5C 8D 9D 55
 EC 7D 6C 58 61 05 AE F2 5A 90 ED A6 BE BC 45 2B
 0C 5A 4D 3D 4C 91 BB 3F A0 1D DF A4 E1 20 74 B3
 E1 EE 78 BD 4F FC 81 6E 09 B4 C1 AE A7 80 29 E9
 D6 60 71 CF 24 39 5E 1D 5D B3 05 CA 28 19 68 0E
 F9 56 87 C4 5E 9D A4 30 6A B2 13 2F A6 BE DF 07
 E1 E0 8B 63 28 3D 12 01 BB 8A 9D 39 0F 8A 00 7D
 E1 C6 3F E9 71 96 F2 8D 58 E7 22 0B 46 D0 B8 74
 B8 F5 6A EB 69 F5 58 E0 AD DE 96 59 75 09 28 81
 B5 19 24 48 75 CE 5B 66 93 F3 00 62 5B 37 A8 32
 E7 7F F9 79 25 3F 2F F8 30 CC 7A 90 59 6A BF 1F
 42 90 3C CF 3A 2D 98 8B D0 FA 20 08 03 AE CB F2
 CC 42 87 9E 1D 49 02 7A 86 6E 18 E8 AE E3 4F 6E
 C2 98 E0 EB EC FF 2E 9B 80 5E D0 EC FD 4B 8A B7
 5C EB 42 B3 C5 AF 84 D0 3F F6 1C 2C 61 3B 56 5E
 C1 FD DC 45 63 36 45 66 76 91 1A 91 4B 31 8F CD
 77 34 C6 91 DF EA 60 47 CD 1A BE C6 19 AB 6C 26
 40 20 0D C9 F9 4B 8A 31 FF 07 6B A7 63 9F E2 A2
 70 9A F6 34 1B CD B6 F8 A5 C4 8A A5 63 EF E8 28
 13 9D A4 E4 DF D2 7D 0C B7 8B 7F C0 46 4A 74 21
 F4 92 14 38 91 31 72 16 37 A2 CA FE B5 7B 51 4A
 9B 95 9D 2D 7D 30 BB 3C 34 FE 89 96 11 A5 85 99
 19 35 24 33 DC D9 1A AF 1C 32 9F 87 D3 50 49 0E
 6A 89 79 EC 73 76 CA 11 CE BF F5 DA AB FB 19 F1
 22 72 A4 C9 55 E7 EC 21 C3 36 67 AC 3C F1 37 8B
 1C 82 8E 97 F2 E1 13 FA 5B D2 05 EA DC 1F CF 28
 DA 7F 73 E0 A2 56 58 24 04 51 D7 12 D6 57 27 CB
 92 BC B0 2B DD 8E DF 9D 16 DA 0D 3B BE AC DB 3A
 F2 83 82 C2 30 10 ED D3 90 F6 53 1D 10 06 2C 75
 4A 90 99 C3 47 99 2B D6 81 8C 69 9F D7 63 35 3C
 C7 20 56 16 9D 6C 03 55 E4 A9 1B 40 C8 1E CA 2D
 51 B2 A7 C1 8E 7E 36 57 74 8F B3 6C C0 47 FF 0E
 95 79 6F 29 12 48 C8 DD BC 9D 30 E8 F6 50 FA 43
 8B 1B 41 71 C5 90 87 05 AF FB 21 83 38 F8 CE 9B
 34 FC 13 33 5D 81 3E 34 4D 0C 06 38 2E B6 AC 1C
 88 EF F0 A4 43 30 E2 73 E5 38 86 FB D6 91 DF 30
 AD 18 F7 E4 57 B5 B9 F5 D7 26 2F C0 E4 C0 FE D3
 E8 2E 7C 2C 03 26 7D D7 23 97 BE EF AF FC 52 2C
 69 64 3F B2 21 D9 9E 67 65 65 D0 24 5D B8 FE C3
 E2 DD 09 F1 19 2D 3A 60 E3 A0 B1 8D 36 CD 9B 4F
 61 01 D5 4F D3 FB 3F 7E AB 14 99 50 A6 7E 16 AF
 A8 CF 74 79 41 A9 59 12 92 C5 99 D8 50 7A CB BC
 5C 83 3A B1 DE BA E7 86 A3 A3 01 C9 3A E0 CE 73
 A3 1F E5 F2 AF 15 06 CD 0C BF B5 4A 1D C0 9B DE
 AF FF 28 C3 B8 64 7C A1 D2 25 5E 1A F0 28 DF 4A
 3E 34 AC 73 92 ED 2F 22 87 C3 B1 0A 8F AA 4D 67
 56 F8 40 38 2E F1 79 C1 04 00 74 43 31 14 33 F8
 46 E5 DB C7 F5 6B C6 0A 4F DE 8D FA 31 5F F3 86
 42 53 4A 6F D3 7E 99 05 18 C1 C4 86 1E 2E 21 04
 D5 9B 86 9F AE F0 3F B4 DD 13 F8 4B A2 E9 31 16
 F4 8C B4 A3 FE EE 35 56 7C B4 12 9E FE 5C 32 B7
 F7 AD 59 A2 7A C2 02 2E 40 9C F5 7D ED ED 16 38
 D0 2C 7A FB 3B 67 B5 0E 9A CD 24 2F 27 F7 60 15
 C8 43 85 8B 1B 5B 8B 74 95 42 85 E3 4D 60 7F 7E
 F3 61 14 41 48 47 A0 59 36 B6 07 7F EC FE 3C 47
 53 87 E9 6B 9E A6 6E 9B 8D C0 CA 09 3D E7 16 D8
 30 D8 E7 B4 D4 87 33 45 F2 3F A8 AF 71 69 CE 88
 F0 55 C2 4B 7B 7F 71 98 A9 BF 11 B5 55 D6 72 10
 85 3B 56 CE 66 3D FE B8 14 42 DF 42 1F 84 2E E6
 4A EA 41 CA FC B0 E4 A9 FD 05 19 A5 99 E0 1E 4D
 2C B3 74 5D 72 6A 17 5B EC 5A 3F 6B 74 27 B5 92
 41 A2 EE C3 C1 6D 61 0D CD 17 D8 4A 4D 3F B2 A0
 FC 2D 54 C1 49 35 69 0E AB 96 FC 6D 34 6E 27 04
 B2 7F 3B 62 A6 E5 E6 1F 7F 6F 9C 8E 15 95 26 06
 66 D8 DC 4C 9B 5F DA AD 7B 88 9C 73 16 BE 8D 94
 57 E8 0F F9 6B 0A 22 08 01 0A 4C E0 16 CC 37 71
 3E A4 A2 CE 70 A6 FF 35 B4 88 11 23 8E 15 67 C8
 0D 67 58 54 8D C8 AE 95 35 27 07 1E 68 CE FD 9F
 B2 EE 0B 59 72 D6 B2 99 A1 FD 57 2C 9F 7C 98 F6
 E1 6C F4 C3 0C 22 B7 08 A8 CB 49 63 E3 34 78 DE
 5E AD E0 F0 91 3A 05 CD F1 2D 01 DB 10 A1 70 A9
 86 34 1C BD 3F B2 40 E9 1B 72 4A 3E A8 73 48 71
 6C 59 A6 AF 85 05 8C 21 BC 55 80 68 81 07 A8 81
 97 4A F1 10 F5 C3 41 16 59 BD F5 77 A0 E9 54 C6
 F6 6F 4E B2 DD A2 99 02 A5 12 AA ED F6 F8 50 2D
 2D A2 65 12 B6 41 5F 76 96 81 4F 6D CB 5F B4 23
 7E 4E 53 4D CA B4 6C 6E 69 E7 65 04 7D 45 C9 B4
 EC C1 10 76 1D C5 B4 2F 12 15 8D A1 01 1C 2D 15
 C8 71 28 8B A2 E4 93 E4 0E 15 E8 32 A4 78 2C EE
 83 26 3A C0 39 C7 B2 65 78 15 91 68 92 03 1E 20
 5E 28 66 98 AC 20 42 BE CF 9B 74 AB 80 92 89 06
 D8 44 80 7A B2 0C 06 66 31 8E B0 EE A7 04 81 6B
 28 8F 6D 7F 0B 0A 5E 5B C0 4D C7 07 13 3B DD FA
 84 E0 AE A2 AD F0 17 FA 80 F5 99 19 88 81 0F 70
 72 82 40 E3 FB 1B EA D1 B1 47 10 21 AD E2 9F 10
 D0 47 F7 83 2F D0 B7 FF 63 A5 55 C0 C4 12 53 65
 C4 16 62 7D 68 4F A0 7B 35 7D E6 9D 82 25 61 2D
 B7 29 6F 6D 1B 7E 63 2E 98 BC 41 11 49 B5 DA 40
 C4 BE A8 B9 ED 40 D9 94 C8 7B 0C BA 94 0C 3F 85
 5F 88 51 91 79 F5 95 94 D7 F4 B9 0C 06 54 C0 1A
 EC FF 15 03 D2 71 2A 7D B4 08 A1 E8 45 41 9C 51
 98 B3 F5 03 09 D1 89 04 84 97 F9 E7 4E 17 1E 6D
 B1 2D 32 F0 D8 0F F0 49 0D 04 89 9D 95 69 A7 34
 DD 90 1A 7D 50 17 8A 54 33 20 8C C6 5D F0 37 6A
 0A C7 94 4B C5 24 33 D0 13 6F 9D FB EF 8C EC 77
 24 CA 08 E2 D3 01 F8 FF 29 F8 CE FF 06 44 B4 1E
 23 96 2F 29 06 65 91 AE DE EC 42 FA C6 43 6E C3
 B5 98 6C BF E7 06 23 79 80 E2 64 9D C0 D6 63 06
 16 DF 09 87 AF 6B CF BE 03 F7 3F 1B 64 94 9F 4D
 E2 2B 77 40 7C 35 EB 8E 3E 45 CD 49 F5 E9 3C 9D
 0D BD 1A 63 5B BB C0 5C 5F A6 6C 4A BE DC 43 57
 3A 89 E1 52 3C CB 86 E2 AF 3F 4B B5 D3 A0 40 38
 83 BE 9F E8 A1 81 1E EF 6B E9 17 F1 53 D4 8B CD
 6A 73 EE C4 99 D0 06 DE 83 FC FD 87 7E 2A 62 49
 0D 51 90 03 C8 1B F8 F9 5D FD 85 C8 7B 60 8E B9
 DE 70 C3 AF E7 15 85 89 F0 15 9C 01 F0 4B CC 6E
 37 5A 62 E4 16 01 3D 84 11 22 12 DF 42 67 AB 26
 3C B2 EA 5C 4B 49 96 38 B8 D7 38 CD 45 52 44 1A
 90 67 32 F5 B7 EF 18 B4 D8 B0 45 EF C9 2F 84 38
 31 C5 B7 69 D2 90 40 58 E3 CD 9C B8 85 CB A1 53
 5C 99 5E AA 3D 74 D7 AE 14 B6 12 B7 63 3B D5 84
 E7 DB 75 61 0B E6 89 A6 C6 DD 48 4E 7B 45 32 13
 08 00 96 92 F8 F4 7A 08 DB B2 5A 4A CE 81 F9 E8
 78 B1 B8 67 05 4E AB 79 4A 0E 54 62 8F 6C DF 98
 F9 18 2F 9B 2C 98 A7 39 40 AF 63 E4 F2 88 BC A4
 A0 A9 A9 60 0F 28 9F 21 5F CC 35 C4 62 F5 C9 61
 07 E8 52 22 88 A9 C7 D0 3B 34 4D 10 B2 CD 9F 6F
 6D F7 67 49 42 60 09 28 71 46 00 7A CF 72 4C 1D
 84 7E EC 5C CE 7C 1E 85 06 C7 AD 6F 75 DE 0B EA
 68 4D 57 13 1E 71 95 81 4A 69 74 F8 CF 40 4F 27
 3B 64 77 04 D7 DA 8E 0A 99 CF 51 07 E7 7A FC 50
 7F F8 34 BE 4A C8 90 1D E8 B3 3B 46 6A F2 98 87
 B0 CD 3C 32 8F 83 06 75 44 36 4A B9 07 F0 6A 9C
 C8 37 0B 70 29 E4 D8 20 CA 15 CF 69 6E 6F 5F E8
 9E 85 93 65 18 12 D5 15 EF 89 47 5A 30 9B FA 24
 7A E2 8C 31 47 83 CD DF F7 44 B8 05 A7 42 C1 42
 89 F0 ED 46 26 7E 41 E3 6E E0 3D 92 0E 17 A5 CB
 11 E3 93 95 7C 67 5A 87 17 01 DD 0E E8 4E 6F 77
 A7 29 B0 04 76 40 DF C3 FB F4 EA 12 50 18 70 AF
 47 05 1D 0C 1A 01 80 E9 C5 49 8B 93 EC 08 B9 A6
 24 6A 2E 00 FA 6E DD E1 DF AB 2C 04 91 84 12 A7
 43 46 71 50 59 EC 07 87 2E E9 EA 91 96 13 99 26
 3F 56 8A 89 C8 9C 76 D4 D1 33 79 B8 EB B1 BA 20
 42 B0 DF 90 4F 2B 7C F1 3C 55 88 76 7D E1 5C 9E
 40 4E 69 51 9F 10 78 62 A2 97 80 D8 02 D3 7F 61
 51 39 5F E1 A7 9C EE 83 5E DC 9F E8 87 D3 38 23
 7F 5D 93 42 98 B0 91 8D 7F F8 9C D3 10 10 70 3C
 D3 9A 05 D5 92 D5 97 C8 4E 7A F6 71 78 56 A0 51
 E0 6B 02 F2 84 CB B0 71 8C 85 5D 14 71 8C 2F D9
 5B 35 73 99 DB 1D 8B 10 C5 F0 14 E2 92 BF 3C 65
 68 BF 6F F9 A8 04 16 5D 69 62 A5 A3 89 24 06 7C
 69 BC 63 3A DB A2 4C 80 E2 E2 A6 DE E9 71 FD A7
 7A 3A 54 48 FF 67 7F B6 06 D3 26 ED D8 6C 4D F6
 4A 60 F2 22 F4 EC 85 FD E2 01 69 DB 06 AB 20 83
 FC 5F EF 4C B0 71 D0 F9 60 3D F4 7E D1 62 AA 6F
 B0 FD C8 E6 7A C4 4E A5 19 A7 A0 56 E2 2E EB BF
 A9 63 99 E6 D0 FD A5 1F 65 EA 62 6E A2 7C 8C E2
 2C 49 98 93 DB 61 9B 47 F1 A9 63 15 08 6A 53 C2
 BF 8E B0 CB 2E 98 7A 8D FB 5F D3 45 4D 7E 70 8B
 2C FD F5 BF BB D2 F3 00 AE 9C FA 87 90 61 BD 71
 48 AE 9D 4E 69 6A 58 62 24 4D 0F 0A D1 06 14 46
 10 4A 81 97 3D A5 33 21 7E 6E 87 78 0B C9 7D 4C
 BB B6 3F E4 E3 54 37 B9 97 C5 5B 37 0D 17 A3 3B
 25 E2 42 5F 58 AC BC 9C A9 6B 93 48 7C 21 D5 44
 AC 80 38 73 41 00 7A FC 2A C6 12 F2 6F 38 D2 31
 4C 22 18 09 D2 5F 49 8F 8C 6D 37 A9 3C 70 53 14
 73 69 57 94 08 14 4B 79 6D 84 23 50 63 32 46 A3
 DC FC B3 1B A7 EE 5B 65 D6 99 54 82 42 7D A0 0F
 EB 2F FE AB E4 E4 F9 23 D1 E3 45 38 E0 EE 32 0F
 89 3D 60 56 D6 61 38 C7 11 88 22 78 51 98 FD 4F
 36 10 55 BA 2B A8 A8 18 DC 4D 3D 75 4C 73 D6 9E
 42 EB B7 52 AB 0F D9 59 6C 2A 56 59 66 83 0E 68
 46 A1 3F C5 4C AA A8 AB 52 07 48 04 18 71 A8 1B
 B4 3B A2 3A A7 38 29 73 56 D0 0D 65 36 79 9A D5
 77 94 82 43 B9 FF 6F 6D 55 46 45 D2 8C C2 25 08
 AF A8 F6 96 0A 90 49 25 E8 03 7B 89 2D 72 B8 0C
 06 44 04 B4 3F 7E 12 69 38 12 24 04 DF C0 71 1C
 74 4E 1C 85 7D E2 53 EB B8 7F 51 0C 25 FB F3 07
 5A C3 A1 1B 25 69 26 90 0C 8D 53 58 60 05 7A FD
 14 EF DA 8C 26 0B 1D 48 44 B4 A1 B3 04 BC BA 62
 DE 15 34 F7 1D 2B 21 9F 9A 63 5F A6 B1 6E 77 6D
 3B 9E 49 21 1B B1 A7 F0 A4 4A F9 2A 96 B8 6C A9
 7B 67 D2 2D E2 77 5E CE E4 E4 C3 54 49 FF 2C 5D
 58 6A 26 CC E3 4E E2 2B 9E 5D 61 35 B5 96 B1 86
 8C 84 0A B1 99 D8 D9 40 7B C6 BF C5 88 64 95 0C
 4B D2 7B EB 73 5C 01 06 26 9F EF 9A 41 3B 19 A6
 A5 01 13 20 F7 9C 7B AB AF E3 3F B5 29 58 9F 35
 F5 2A 99 61 28 DF C5 D2 08 93 97 BE 11 C4 DC 7D
 BD C8 E8 B9 8E 2F F1 EC 84 C0 48 D3 C9 D3 A5 75
 A8 89 51 CF 62 A3 BB 45 0A 9F 08 3F BF C8 B8 29
 F2 83 E9 F9 20 FE A4 7A 07 8C 0A 3E CF BD 2A 10
 19 D4 4C 31 AD 9E BA C9 03 80 E9 AC E4 DA 31 3E
 E6 49 02 37 76 BE 3A 06 0A 62 55 DB 9D 4D 5E 6E
 4F DB 62 F4 61 5B C3 D3 6E 73 F0 B5 1B 80 AA 3B
 2E F8 6D 56 EB 24 10 CC 02 0B DD 9E 3E 14 3F EB
 CB 2B 6F 89 CD EB 09 BF 48 09 AC DF 18 EB D0 D9
 BB 7A 53 D2 9F DB CA 9B 13 A7 54 6A B8 33 B1 E9
 C6 29 46 FC 2C 3F 50 10 94 4F F1 D2 58 62 9C 20
 AC 6B E9 73 9F 44 67 3C 60 65 94 4D F3 D7 BC 33
 FF 0A 75 A5 B0 A9 78 AB 3A 5F DA C8 AB 01 05 DC
 CB 05 A3 71 2A F6 02 E6 45 3F B9 AA E2 1F CE 20
 02 62 06 83 87 AB 13 1B 3E 2C 01 F1 DA D1 AB AE
 84 FF 81 C7 CD 60 28 5F FA A7 44 0C 69 19 9C 73
 7A 04 48 70 4B E0 13 1D BD 8A 92 6B 8F B9 E4 9B
 4C A3 F8 4C 51 88 25 95 52 A5 CB 1B F0 BF 4E 47
 6B C0 C0 E7 68 7C 44 C9 73 60 1A C1 16 A0 0B A7
 9B 2F 8B 1D 1B D3 2C BB 57 26 07 E0 43 1A 34 80
 6D 29 FB C9 C2 F3 70 38 15 D8 5B 6A 04 F2 52 3D
 0B 2C A7 49 A8 FF 28 DF 91 AC D1 CD 0F 24 CD 17
 55 BD B9 84 E0 C7 56 4A 68 7B 78 6B C6 E3 A5 AD
 B3 B7 39 8A A8 9F 7E 3B A4 0C 43 B8 3F DC CF D6
 52 8B 4F 7C 8F 3A 79 90 3C 78 4B 28 00 8A 43 03
 0B 89 44 43 6A 63 A3 41 CA BB 1E FF 53 DE 87 7F
 C3 55 02 09 0D 68 EB EA D4 B6 CE 69 B6 38 27 B6
 9B 90 DE F3 95 CE 21 38 48 2C 65 6F AC 1A D9 17
 E0 1E 53 38 A3 F4 74 FA DD DC 8B 1E B4 55 5E E2
 9F ED E0 B3 EB 20 F3 10 37 F0 F2 97 D8 65 D9 B8
 C8 92 73 43 26 F8 B4 D5 37 0E AB A4 97 C2 4D 9D
 1B 19 EC 1C 88 A9 5F A7 4C A5 4A 8D 0E 54 10 4F
 77 01 7D 1C 87 B4 C8 94 41 F8 12 86 D9 CA 57 93
 A4 F4 95 9D 65 27 11 24 71 18 5E C6 81 3C 97 57
 AB 99 B8 83 64 4C 66 9F 0A B3 35 B3 DB BB 45 FF
 42 20 B0 40 56 F7 6B 47 38 60 CC A6 F4 52 78 6E
 AD 94 BC D1 28 20 16 7B B2 DB 9E 5F 96 38 75 6B
 3C 5B 7E 0D 13 0E 88 0E 4E E5 A3 FB BB D3 32 4A
 86 49 2A 44 D8 1B BE CD 48 C9 D3 7D 52 1F 9B 94
 77 31 22 D4 FD 87 37 E9 86 A7 EA 21 B7 BE 43 EF
 5F 5A 77 9A 65 FB 0E 0F A4 B5 43 0E EF 8E E1 FC
 71 22 1C AF 22 16 96 80 80 AF EE 53 E9 C7 25 EB
 03 BF 9F C3 07 76 13 5D E6 E2 2B D4 76 F6 B4 15
 39 27 81 CD E0 67 91 08 87 34 EC 20 9B 31 CF F8
 1B 01 D9 04 B2 65 5E 6B B8 56 ED CC 66 2E BD E4
 C3 10 E0 77 79 A2 E7 F4 32 58 B6 C3 D5 F8 9A AA
 02 C6 E4 24 95 B4 AA 59 58 97 AC CB CB B6 92 87
 24 7D C5 D8 D1 BB 09 6D 27 ED 9A CF 3E 73 E1 97
 19 3C B9 6F 5F 8A BE 44 F5 97 ED 33 E6 2E B5 47
 88 36 90 CD 1D 07 52 84 6E D7 51 51 8F AB F0 ED
 54 F1 42 6B 98 EE BE 23 44 CD F2 CE 67 2C BB DA
 D0 D1 2A ED C1 2C FC CB 12 D3 C5 9C 1D 9C E5 DB
 18 C6 E6 5F BF FF 6D 25 E6 78 E4 2F D2 64 FF 2E
 0D FD 87 EA D8 B7 DC A1 17 68 78 DA C7 1A 97 0D
 A8 EE 76 1E DF 8C A6 6B BD 88 C4 1A 73 E8 36 87
 FB 65 60 96 B8 CA 83 D1 F7 44 A3 17 15 67 56 78
 38 CA 4C 8F 7A 7F 9A BC 42 95 C2 03 F1 04 D8 66
 61 26 D0 9D DA E5 D6 97 53 EA C6 8A 75 E6 42 00
 96 ED 0F E2 23 44 25 2C 6D 68 FD 99 91 B1 38 F8
 2A 3E C4 60 D4 5C A2 A5 88 75 A1 58 F8 B3 ED 3A
 F0 D8 D0 49 37 99 0C AC 51 14 FA B6 AA 87 AA 5C
 A0 9A 06 9B CF C7 18 19 9E 5F 33 81 3A CD F9 F1
 30 AD 87 A9 0D AE DA A1 0D A8 C8 50 99 AA EF C7
 F6 26 51 B9 2C 47 A7 36 6B 00 42 58 0A 78 15 6D
 49 86 9F E3 EB 7C DF AD D0 D6 B1 70 37 8E 86 C1
 33 F1 5E B6 00 C5 17 9F 65 D7 2D FB 44 F9 36 17
 3B DA 8C 2C 41 75 2A AE 96 AF 19 E0 86 AF 78 10
 C6 4B 7D AC BB 77 0A 78 FC 7F 4F 7A 9C 69 32 BF
 ED AD B8 9E B1 85 6C 3A 14 8E DC DD B7 D0 F1 14
 24 84 C0 98 97 E3 FE F7 87 10 6F 4D 6B 6B 77 51
 AB 51 09 02 D1 DA 50 AF 34 32 B1 ED E7 4E EB F5
 1F F0 AD F5 AE B0 09 72 85 CC 56 B8 2D 70 C0 84
 B4 D9 99 A5 EF D7 7D 13 13 10 ED 4D A5 F7 54 26
 4E 25 F2 0A 6B A2 96 39 01 90 12 96 AA 45 0C 62
 35 B5 99 29 CA 50 1C 79 13 C5 21 61 88 AF 27 26
 A7 09 B0 3A A3 3A EE 42 2B 48 96 28 93 22 F2 AC
 9D 5C FC 14 C5 73 78 4E 42 D0 FB 52 E9 D9 33 35
 7A B4 C2 F8 54 F6 14 67 88 73 D7 7B 79 41 E1 30
 FD 08 FB D7 E7 F6 B5 2E B5 B4 CA 92 BE 9E 3B E8
 63 9B CC D6 81 86 13 79 CD 44 96 E1 4F E5 FB 02
 07 5C 4A 49 3A C3 3E 11 7B 01 F3 9A C8 B4 E9 32
 65 32 E1 AF 32 47 64 D0 03 26 F5 3A 43 E8 F0 35
 C1 DA 4A A8 23 E8 43 38 DB 3C D7 94 C0 9F 38 8E
 3D D1 BD 0E 90 2B 87 82 E9 1A 64 38 53 96 E5 41
 D7 4C CC 0B 70 2B 60 C4 4A DB 9D C8 44 06 AB C9
 8E 0C E7 A4 F2 6E E0 56 03 06 77 B8 BD 50 AA B7
 0B 61 13 07 69 E5 0A 60 B0 76 00 4B 07 A9 D8 5E
 7E ED 20 7B DE 57 2E BA 4D 7F 37 18 78 64 BE 42
 2D D4 BE A4 EE 2B 18 4D CE 54 0B DA 06 4D A5 24
 7F 97 F3 D9 57 91 E1 42 D4 61 1E 08 3E 1B 5D 0F
 07 50 E5 20 3E F7 9A 79 FE 68 1A C9 3C 6B AC 84
 91 43 FC AB 3A 1B 1A 56 91 45 E8 EE 02 AA FE 88
 52 6D 0E BF 92 8B D1 BF F8 68 C9 94 D0 83 41 2A
 67 01 6B 13 2B F2 DA B8 D6 E4 0C B8 27 A3 8F 73
 FB E4 B1 1E 7D 06 AE 25 BA C8 81 0C 07 BD 6B E9
 62 36 EA 63 52 37 E4 CE AA E4 65 47 2B 2B 27 BD
 FD F2 DB 3E 08 A4 CB 26 65 AD A6 E5 91 86 22 A6
 5D 14 1A 66 81 A3 BC D5 4B 79 AB 05 76 84 AD 00
 C3 98 07 56 81 FC AB 0F A9 AF 53 23 79 1D 63 E6
 7F A5 D7 E1 68 3B ED CC 2A 99 20 1F C5 11 8B 56
 63 8A 2D 23 0B 0F D4 3D D4 7D FE 8B 51 71 F9 15
 04 94 C1 8B D6 BD E9 32 27 4A 1B BA 0D AF 92 B8
 1F 34 1D 31 ED 6C 6A F1 DA 3E 76 19 DE 50 56 29
 8F 6E 14 52 41 76 F6 DE BA B7 00 20 CC A8 9E 72
 41 E2 15 2B AD B1 3F BE E5 08 01 8B E3 05 A6 D2
 0C 17 63 21 27 24 88 72 0D F5 41 FE 2C 64 1E 06
 D8 99 41 36 46 40 26 DE 99 2E 81 1E 29 E3 B8 1F
 6E ED 38 25 92 77 47 FA 17 B7 AC 83 0F 34 F2 B0
 DF 7F A3 9A 20 92 97 1A F1 3A 47 5D 6F C5 F9 9D
 8A 2A 2E 4E 1B 57 4F B2 3B 4B 71 A8 CE 23 3E EE
 86 87 AB 85 85 6B 54 97 D8 C9 E0 F7 E5 9B 23 D3
 EE 3D 79 AF 03 E8 A7 4E 08 6D 42 83 60 7A 93 E7
 AF 87 77 16 13 80 B3 AE C1 DC 30 18 7B 6E A2 41
 A6 2B 1D E2 C0 91 69 91 66 D3 23 C0 CA 56 BF C4
 CD 13 95 12 DE 2A A2 8C A3 8B 99 A2 53 A0 B5 8F
 F6 B9 57 67 EF 6A F9 2E C7 58 A5 73 48 21 B8 AA
 15 AB 97 14 45 15 4B A5 B7 54 07 57 49 3D D0 AF
 81 3E 9E A9 24 78 1B 40 9B 8C D3 18 FB 3D FB 11
 43 27 1B E4 BA F7 CB 37 BD CF D9 94 88 94 5E 99
 C7 E5 6D 02 F6 CC B2 F8 BF 91 2D 35 76 B2 93 9F
 08 A1 BE 07 FB 3F C9 AE 39 85 F3 77 D9 F7 BD 37
 D7 24 0F D9 99 DF 56 92 30 CE FF 48 24 2B 17 95
 61 83 62 62 10 5C 57 30 E3 B4 07 76 1D 49 9A FB
 D7 A8 D2 54 B9 A2 E8 7B 85 45 B8 38 17 CC 32 CC
 20 38 E5 FA A9 13 72 A2 AF 7A A0 92 18 9A 10 E0
 75 81 70 54 2C 08 D4 A0 82 A2 C5 30 8B 6B 9E 88
 7B D6 83 79 36 F3 28 AE A1 2F BB D9 45 2E CC 05
 7F B9 54 33 83 A4 66 56 18 32 6D A2 F3 94 34 59
 12 DE 9C 23 98 BB D4 5C DC DB 96 F0 9A 2F 47 73
 BF E0 83 A2 23 F5 E9 60 B4 DE C3 1A 6C D2 6A A5
 FE 8A 6A 2B 3F 75 5D 0E EA A0 6B A2 BB 07 C9 99
 6D 40 63 31 DB 8E 46 A1 D4 A6 0D 45 9A 6C FE 06
 96 2E C9 63 5C B4 9B CC B4 3A 81 E2 65 B1 6B AE
 31 EB C6 19 7B 9B ED F6 EF 71 0B DF 21 CC 5D 93
 CC 05 F0 6F F2 55 F7 0D EA 53 1C A7 38 9E 6C A4
 D2 68 B9 0E FD C3 3C 7D 1A 46 C4 A8 DA 83 8D 52
 4A B0 CA 71 02 2A 48 5D BA FA 95 39 6D F4 69 F4
 92 52 E9 EA CE 4B 13 63 5E 6B D5 DD 7D A3 75 17
 93 18 84 B1 F4 96 51 15 91 03 36 AC 98 E4 14 C8
 85 68 00 1C D5 87 D0 0E 15 41 04 97 6C 55 3A 18
 42 52 B5 29 7B 73 26 A3 2C 33 55 E5 00 09 E8 AF
 01 09 67 46 36 F6 86 23 46 2E 39 4B B2 5F 24 97
 6B C1 CB 63 10 4D 5A 31 06 38 BC DA F6 A9 E1 1D
 2D A7 67 55 7C F3 2C F4 AA 03 EA 44 E7 12 A6 08
 6E 8C 9B 53 44 36 37 12 D7 B8 4F 07 61 45 08 20
 09 00 AD 99 C8 46 59 89 76 B7 9D E8 49 2E 4E 34
 16 12 7F 52 55 28 2F A1 AD F3 50 B0 5A 9B 36 DD
 A4 0A 70 12 13 80 44 DD 25 D2 70 64 89 32 32 D5
 54 06 1D 55 EE DF 2C FB 80 EE 12 7D 64 55 E3 8E
 12 DC 38 49 C4 76 75 62 87 93 3E 6F 1D 19 5A D4
 51 05 A9 8D CB 24 7C 1B 03 FC 35 A5 67 60 B7 9F
 85 13 58 EF 09 69 87 21 84 97 24 63 CB 73 F3 A0
 00 BD 4A 85 D9 F1 B0 65 2A 79 7B 49 7A B6 73 D6
 92 7B AF E7 85 0F 94 6C 7A 7F 64 5A 57 4C 25 47
 93 BC A5 D1 A7 AD 97 6B 4F 32 01 39 0E 44 C2 4C
 FA 2D CB 9B 58 FA 98 97 38 53 23 17 BF 32 F3 BF
 80 77 B3 5B 9B 4F 04 A4 94 F4 E2 FE 95 D8 75 0C
 41 F4 1C 57 D7 C2 ED 65 8B D7 3C 23 AB 49 12 D8
 DE 7B 89 C9 4E D5 95 81 E3 85 0A EC 17 98 64 90
 01 BA 69 25 18 E6 1B 73 E2 13 11 77 0E B7 30 DE
 37 36 12 2D C5 F5 AE 60 1F B9 4E A3 2C 2F E7 4B
 FF 9C 0B AB C4 6E 63 D3 40 2F 3F 25 83 29 98 8B
 B4 8C DB 54 23 CD 41 21 BA DD D5 39 11 61 63 B8
 EB 38 4E 7C 2F E3 E2 EE 65 C1 22 29 D4 30 6D FA
 08 34 EC 60 9F B3 80 32 FC 2F E6 47 5F 59 FF 88
 52 44 8E B1 85 EF 4D 6A 33 5B 7D FF BA 44 8B 90
 CB C8 F7 B2 10 A6 E1 43 6E 98 F5 8E CA 33 BC 67
 99 9D 26 21 9D 71 9D B0 50 8D 20 CF A5 73 A8 34
 B7 FB 24 3D 2A 19 1A 5A 88 9E 02 C5 B2 D0 88 79
 9E 08 34 06 AD 53 52 D1 36 B6 2D 51 A2 2E 61 D5
 5A 60 9A B6 8A 34 D4 26 B9 26 31 64 1E E0 89 FD
 30 F9 E0 4F 7E 99 61 24 EA 40 76 F3 34 B8 92 E5
 ED DB DE D5 98 FB 41 B7 76 FA 3D FD 32 EA C0 84
 43 CF 71 A0 3C 8C 1C 76 B7 A2 60 34 70 2F 2A 2E
 DF 44 A9 37 15 FB 0F 1D 9A 02 EC BC 10 16 C5 8A
 21 77 4B AD AF 3D 6D 87 AE E2 78 A7 25 F0 3D 29
 66 30 11 74 8B 72 35 F3 B4 00 0B 06 94 DB B9 B5
 D0 19 FA 12 E2 45 6A B0 3F 3B 51 31 0D E6 1F 3C
 D5 CD F6 FA FF 56 66 A5 89 0D BE D1 AA A8 76 6A
 5B CF 9A 96 9E D9 2E 5A 96 1C 57 4C 55 08 94 1E
 75 CA FE D0 3E FA B4 D7 03 18 F6 31 EF 8D 1E E8
 A9 E8 4B D2 42 6D E3 A7 38 64 AC DB EF 64 DD E4
 4F C3 62 B4 98 A4 D0 CD 26 96 EC D9 9F 30 AD 0C
 D4 3A 7B C3 93 9C 6B 9F 02 37 B4 AA 72 9D 92 8C
 D9 B6 46 A0 6C F2 C0 0A 30 23 AC 86 0A FC 26 B4
 B9 C9 E6 0C EC 9C 35 B2 C7 37 3C F6 D5 D8 0C 89
 C1 80 81 F6 EB 6C FA FD 9B C1 93 5E E5 AC F6 DA
 83 AD 86 51 B8 F3 F7 B9 58 89 30 41 99 2E E6 18
 49 2F 4F 73 04 82 E9 93 F7 E7 37 A3 BC E3 9D CF
 50 74 0B 7A C0 14 34 66 09 E8 C4 C9 F0 91 00 1C
 82 92 4F 9E FF 10 BF 0D 5A BF 8D FF F7 C7 4D 82
 B5 49 14 5D 74 5D 88 4B 5F B7 6A 1A 33 45 54 E2
 11 B5 46 18 60 09 41 D7 58 46 02 18 97 44 D0 A7
 27 04 B6 8E 64 BB 0D 49 8D 39 4D 7B 5C AC DE 1B
 18 D1 0A A7 39 C3 A3 9C 27 82 2F 27 58 C6 CB FA
 BF C1 6F 2B 3B F7 6A 8A 44 15 BE 5C 49 9D 52 04
 56 99 AA 14 B6 E0 53 60 5C 3C 5F 27 80 4A 2E 22
 FB E1 0D F5 E0 5D E7 80 C6 86 78 7E 29 AF 94 93
 EF B1 A1 AC BC E8 3C AA B2 7B 74 E7 92 42 0D B5
 54 AF 28 0E C0 02 DF 60 09 46 35 C4 39 C9 98 6A
 14 85 8E FC 2F 70 09 86 5D BF 44 74 84 0D F2 76
 19 0D 67 8C E0 B3 40 F0 DF 3A AD 26 CF 7C C4 9B
 A6 73 9A 2A DF 68 9D 54 37 02 69 C2 BB 35 FE B4
 93 E2 53 D1 11 5E DE 7C 72 AA E9 D6 F0 39 A6 B4
 C7 48 5D 5C 77 E5 E7 86 9F 7B 4F 43 D5 40 99 BB
 A2 74 13 31 94 A7 21 0C BC DF BC 93 AC D1 8F 79
 0E 36 44 1A 62 BE 92 6E D2 07 20 07 3C 88 41 5E
 B6 67 01 BD 91 2D DA 57 66 9D C6 BC 24 BC 52 44
 4F 82 97 8C 44 2C 82 30 C6 3D 3E 93 1D 54 36 A4
 E4 8F DE E0 EB E8 35 C6 A3 F5 56 AC 4B 61 65 83
 19 CC FD DF 2A 24 B8 60 0C F8 E1 44 DF 9D 48 05
 11 49 45 2D D9 DE 4C B5 4F 48 D1 21 82 D7 9D 30
 A3 E1 21 4F 09 7E 96 A9 1C F0 49 3F 74 15 35 9C
 D3 3F AC 71 70 75 9F BE 59 BF B6 80 33 37 F0 2F
 D5 8C 35 FE D7 96 31 D8 A6 4F 4E CE BD A7 A9 80
 BE E4 75 A3 A5 76 E4 1E 4B 4A F9 05 29 8A F0 39
 20 78 D4 9D 61 0D 16 1E 25 26 98 9E CA 7E 51 78
 E4 96 6F 01 34 51 E0 81 DF FC 60 DD 63 B6 B2 A1
 E4 B3 40 6C 44 BF 3D DA 2B 1B 77 16 81 91 80 3E
 D4 35 A5 76 29 FE 1F 67 69 8F 00 A6 1C 20 C5 5D
 94 DE E1 AB 5C 26 C1 69 7B F0 1B BD A0 E8 83 6F
 1B EA DD F4 1B 30 12 1D 17 8B 7C FF C9 4B E3 9C
 D0 69 31 1F 50 AD C7 20 9A 29 F5 38 E1 77 96 CC
 7A 38 B1 C8 4B 54 DD 00 29 AD 38 C4 BA FA A9 6F
 4B 52 2C 51 19 B5 FC D7 5D AF E5 8B 2D B4 9D AE
 C1 3D 4F 7D F6 09 76 6B 5E BF 69 7A C8 FF DD A5
 C5 38 B0 CF 72 6C 8F 5E 20 1D 09 4E AF E4 B6 2F
 4E 14 70 F1 92 F2 76 70 C1 FC EA 42 2B BC F1 BC
 1D EF 06 7E 02 70 C4 20 F4 4A 1F 04 6A EB 5B 71
 EE 52 FD 22 16 DE 83 9F 76 6A B8 63 EA 84 68 A3
 72 57 E5 94 22 A7 73 4C CF FC B2 54 AE B9 C0 9A
 E0 AB 1D 5F 92 FC 5A 79 56 3A C8 D7 5A 21 3B 53
 CD D1 61 2D DA B4 31 CF EE 07 EE 05 AF 48 59 00
 1D F8 90 20 71 5A E5 40 84 23 13 0C 10 B4 F6 BA
 96 18 02 6F FE 9F A8 90 7D 18 ED 1C CE 4B 41 F3
 CE 7C 66 9F 28 17 A3 08 06 3F B6 D2 E1 C5 19 A4
* End 3817848175 1335765507