* LTspice Encrypted File
* 
* This encrypted file has been supplied by a 3rd
* party vendor that does not wish to publicize
* the technology used to implement this library.
* 
* Permission is granted to use this file for
* simulations but not to reverse engineer its
* contents.
* 
* Begin:
 66 6C 41 DF 7D 08 93 D4 3C BE B4 1B 24 7C 6B 66
 CE B9 29 E5 82 30 6F 58 6E 9C 7D 19 80 44 4E AD
 06 0A 44 8A 55 2C 1B 52 5E 84 DF E3 91 01 9E 95
 F6 CB FD 2A 3B 2D 5B 55 97 78 2E 54 B9 E3 BD 45
 23 67 C8 E7 57 FB 01 F8 72 B6 CA E4 F3 AD 29 D4
 B5 34 E0 82 62 9E F5 15 22 AF 30 CD 3D B7 B2 E6
 A6 D4 EE 97 4C C5 04 48 C9 78 B0 06 1E 41 B7 1E
 98 53 E1 62 40 D6 5C EB 15 A4 FA 63 4D CB EE 2F
 09 53 45 E5 15 E7 A5 B6 40 23 26 B7 F8 74 C8 78
 91 1C EE B5 03 99 C8 1F A5 80 9F 97 5F 7A EA 48
 00 D3 A7 9B AF 47 EF 82 01 43 C1 9F 45 D5 57 F6
 18 A0 3C 4C FA A1 38 4C 76 B7 A3 91 37 00 A4 37
 8F 48 F7 0B CA E9 12 04 F4 24 ED 96 B3 7A 42 F9
 70 5B C0 54 8D 4E C3 3B FB 45 32 40 36 CD 82 1D
 3E F7 19 8E 0E AB 49 3F FC 85 20 90 04 B4 CC BE
 C0 E0 93 7C 3E C3 96 BA 85 49 4E BF F3 CA 2B 03
 B9 5D 42 73 A6 A1 86 C2 7B 2A 20 04 F2 03 00 3E
 62 A8 4B 55 00 AB 1B 5A BC 60 C3 53 E9 83 FB 90
 0C 63 BE C6 67 7E FE FE 94 14 8D 5F BF 7B 13 FF
 F4 1F D5 32 20 16 9A F8 78 1A 5F D1 07 1D D4 1C
 CD 4D 4A B5 E2 4C 80 18 04 92 3C 6F E4 F9 E5 E5
 0B 01 21 B8 33 D9 ED 9D B0 CB 72 AC 36 AF 3C 5C
 B9 EC 77 33 C3 EF AB C0 64 5B 23 F1 52 DE 04 41
 BE 63 0D FC 6F 89 23 5F 63 B3 27 E4 1E 67 5A 98
 AF 54 2D 6B 03 77 37 5E F5 19 A6 9F 8F 1F FD 5D
 70 D5 C8 ED 62 3D 3C B7 22 76 F0 45 E0 3E 12 4A
 F7 05 CA 62 92 C4 66 95 57 0E 8C 0B F4 D6 23 E5
 69 DE 6B E0 05 E6 75 46 7D 88 CD 39 A3 26 9A CD
 A3 43 66 B4 88 36 F3 02 3D 6A 55 DD ED C4 47 F1
 0B 80 0E A9 FB B0 74 B4 38 94 F0 83 81 96 84 FC
 7A 0A 29 1C 5B D6 F3 F5 44 B9 7F DE A8 7A B6 BC
 05 EE E2 71 96 F2 49 0A B2 25 0C 89 A9 F8 5F 8B
 F8 40 FA 3E CB 1C 4B F2 5B 52 F0 9E B9 A9 0B 36
 03 9A B0 95 81 BC 4C 98 FA 49 F8 6E A4 DF 0A 50
 77 86 C6 BB C2 69 2D 79 9A E3 13 0F 6F AE 0A 3D
 1C FE 66 DD 35 FA F3 0C 2A E8 A3 22 D9 B2 5E 68
 84 B5 D5 F5 EC A5 3F 59 90 FD C8 4D 8A 98 7C 51
 08 69 C6 85 7D 9C 37 5D 75 49 7A 26 DC 79 F4 6C
 D7 A6 F6 DA 0E C5 A9 77 83 D6 C3 DD 7D 1B 1C 1D
 E1 AB 7D 68 E7 01 EE 10 F7 17 4C B5 13 4D F9 58
 B2 57 BF AF 5F F1 7E 3F 71 6E E2 55 F1 DE 47 53
 03 61 80 AF 6F DF 06 5B A1 84 F3 93 A8 1B 84 62
 BE B8 ED 86 A1 9B B6 FC 55 90 01 44 F2 F7 3D 1B
 0D D7 7C C3 07 D5 7B 9B 3E 3A 69 B8 15 E2 1C 1E
 6A 0F E9 4B 18 AB F2 74 94 38 87 23 8A A2 CE BA
 A4 CD 2F 29 45 2A 55 21 62 91 9F F8 5F 52 37 6E
 38 5D 27 DC 79 48 EE E3 E5 D5 10 DD 6F 18 02 64
 37 7A F5 3C 18 6F 17 43 3D 57 5E CD 54 ED BF E2
 52 5F 44 20 ED 28 69 F5 1F 52 F5 A1 A9 F2 EC DB
 59 52 EF F1 A5 38 6B 86 8F 63 92 2B F7 5B AC 64
 D2 62 FD 01 31 96 C5 DC 30 72 98 A3 B1 E5 97 0E
 68 53 6B 21 C0 67 78 F8 68 51 89 AC 0F 8F B0 D1
 49 9E 7B 4A B1 C1 8C 3B 4D EC 12 D0 B6 35 2E 19
 C9 DC 31 BA 4D C2 62 D0 94 A6 E9 8E 3D 94 D1 54
 B8 11 30 0D FB 67 0C 55 F6 64 C8 16 F0 DB 67 B2
 69 43 FD 8A 5B 5B E8 AE C8 FA 4D 01 9B 48 1A 47
 58 87 06 C9 73 21 DE 0F EB 6B 02 E2 F7 B2 3E 63
 1E 8D 97 6E 5F 3A 74 C2 3A AD 8F 22 50 EE 40 90
 74 C8 EC 1D 70 D3 EF E2 4A 17 EF 7D 52 E0 C9 73
 3C 09 55 73 28 03 4D 58 B6 93 D6 D1 A0 DE 05 3C
 5B CF 31 F8 D3 A8 AC 64 05 D7 D2 9F 78 59 6E 15
 76 6F 9F 2B E1 93 D4 9F AE 13 13 42 4A BB 21 89
 F8 AE 93 9D 34 67 46 CA 8D 66 96 E4 AF A5 62 F8
 10 E0 1C 2F B2 22 7D 0A E3 5A 70 69 BD A1 A6 0C
 E1 25 80 F8 92 A0 2F DA BF A1 14 24 73 1C E2 90
 21 F9 1C 10 0B 32 9F F2 5A 65 E0 02 EA F2 33 0C
 74 BB 57 EC B1 C7 3F 41 9B BE C2 21 6F 78 D2 21
 BF F1 5C 51 E6 C0 1C 11 E1 6D 5E 8A E9 7D EB 1D
 E1 30 D8 3D FD 2E 84 6C 72 A4 87 56 56 C3 53 9E
 35 68 A4 98 E6 69 84 3D 82 E8 A3 18 00 FD E2 06
 C4 3D CF 6A 0B 19 02 3C 55 38 03 C9 30 5C 1D AF
 C3 67 A5 54 F0 0A 50 D9 97 73 19 2B 1C 40 3C BA
 4B 8F 49 FF 20 33 7C 63 68 19 1A DA 2C E4 3C 64
 69 0F BA DE 2F FD B5 8E 8A 65 01 63 FF 59 9A F0
 E8 38 86 68 DF 60 39 8B 26 75 A6 6D 35 92 20 E7
 61 5C 86 31 39 A3 47 00 82 1D B1 26 23 AB BE 78
 3E CF 44 8C B5 D4 9A 13 92 92 87 C5 52 D3 0F 46
 36 D8 34 F5 AB 77 22 A7 9D 0A C0 70 AF 8C 56 FE
 6D FF B6 51 E7 C0 AF 24 04 70 02 26 43 63 12 4E
 77 25 73 44 05 95 14 C6 0B 86 D3 8C F1 EE B1 53
 9E C4 82 D0 23 1A 00 77 09 9F D6 3E 3C F9 BF 22
 16 C5 31 F1 B9 FE 92 BE CD B7 04 97 2E A4 60 82
 2F 53 CD 5E 6C 6B 2E E4 34 7C A0 DE 09 C8 62 A8
 83 E8 DC 0E F3 A2 C3 7C 85 D7 7A 37 EA 68 3C 9A
 83 EE 97 2D 65 B4 71 AC 3D 18 0E 12 3E B8 FB 9D
 67 EC 18 18 BD C7 5E F8 84 28 64 FB B6 96 1C BE
 3A D0 F9 45 FE 9F A9 FD 29 E1 2E FE 58 BF 83 FA
 E7 A1 8A E0 C5 47 B9 94 2A 68 FB EE 0E 7F 47 5C
 C5 02 3A 51 28 27 2D 01 84 1D 58 B7 13 55 CA A8
 59 84 9A 98 C4 8C FF 1C CB A9 4C 37 97 D2 1A 41
 4A 6F 37 85 55 F3 1A 39 A0 DD C0 D6 02 E1 2F 45
 E4 1D 19 9D 0C 86 1E D4 F7 1D C2 9E AE 54 5F 7A
 9F 61 9B 1C E6 A3 87 58 C6 73 25 AD 45 54 B0 A8
 A5 73 02 A6 93 C3 DF D0 B1 36 2B AE 3F FC 34 F8
 AC 59 17 C7 C1 10 50 C1 F3 D4 11 36 EC 16 37 29
 8B 9E 4C 9C F6 46 42 65 A2 2A C9 08 CF E6 4B CB
 4D E1 27 38 A0 90 17 68 63 59 9E 83 1E 16 BD E1
 50 A4 15 81 63 C9 1A 40 38 EC 71 80 1C C8 62 4A
 66 4E AA FF 91 48 4A F0 85 DE 87 04 F1 A9 8B 98
 6B 48 0B 38 A5 84 DB CB 3A 45 F6 AA 09 00 6F ED
 EB A7 47 0B 1C 25 83 D7 EA 14 CC 6D 81 0D AD A8
 5C 6F 11 C1 52 C1 33 B0 30 13 54 36 A2 FD F5 41
 A6 85 06 03 3B 29 77 89 D1 9C CD 8E C6 CE 26 31
 BE 13 65 3C 30 F1 42 9A C3 45 C3 B5 DC 72 40 29
 6C 7A A6 C1 FC 67 C2 3F A4 3A 2F A0 0A 57 05 FB
 5F D2 78 BD EE 75 79 91 AF D5 7E 37 9B E7 69 89
 EA A5 D1 6F 99 00 68 22 34 2B 16 81 EF 2D D7 95
 E6 84 9E C9 95 08 EB 11 50 16 E2 5A 8A DD 26 C4
 87 09 89 36 C3 66 9A 51 2B F8 67 F6 3A F2 42 32
 42 2F 0A 01 E0 34 0E 78 F1 F3 C2 2B 39 89 F3 5B
 10 95 5D FD F2 48 AB EB 08 F0 DA 4B C6 1F ED 80
 E6 C5 6B A6 F9 E4 3B 18 7A D8 14 4C 7E 61 D1 04
 DD A3 56 46 D5 A6 51 C9 D8 C7 D8 D2 CE 7E 76 1C
 A9 26 08 09 28 05 93 76 5A FA D7 64 7C D7 6D 13
 D8 7D 62 8B D0 93 44 6E 1A 9B 91 93 FD D9 2E 14
 F9 62 59 CA 0A F8 BB A7 BA DA 96 9D 52 96 6E E4
 E2 64 70 50 5B AC 6B DD D9 AD 70 1F 7D CD C0 C6
 8E 14 FB 24 47 C3 43 11 B7 80 09 6A EB AA 6F DE
 AB 48 FD B9 9C B6 12 84 3B F7 23 97 F8 11 09 A2
 AE 5F FC 5D 9E 74 A3 5E 76 6F 7F 49 DE DE B6 7C
 E0 45 0D BE 5B 83 08 DD 69 2E 88 91 34 A9 E4 80
 4F F2 DB 9A 25 11 9F F2 0E 85 F9 9F D6 81 D7 ED
 77 5B 62 A2 17 CA B6 61 6D 18 D9 7C 7E FB 2B 16
 D9 99 F4 92 84 99 F0 E6 04 F6 EC 16 C4 03 BF 1E
 AD 53 B3 36 EE 74 F0 78 A1 29 30 C7 0E 52 EF 95
 4C 31 8B 84 A6 52 0E 3D E9 FA 4D 49 2A 5A DE DD
 AB F1 34 30 D6 BB E6 16 81 C5 87 3D 76 AF 4B 43
 86 E8 E5 0D C2 42 1A 55 BE 15 ED 03 08 AC 3D 44
 80 B6 50 75 C7 67 C7 8E 4C E8 16 48 E6 5B 96 FF
 BA E1 5D FF 4F 56 90 14 4C 4B 04 DE 10 F1 69 30
 DF 36 A8 EB F1 32 38 A1 D2 9E 7B E2 DA BF 0C D0
 BE B5 11 A9 85 BD 34 8E 4A 4A C0 F4 DE 25 5A E0
 FD E9 B6 47 35 7E 4F 3D 9C 2A DA 6A 6F EC 9E A2
 EA 8A 15 83 D5 AD 55 87 3C 4F 3C 82 41 D9 4E D0
 43 49 0C 40 C4 A7 5A 27 88 A4 38 58 FF 55 96 29
 6D FB 81 E3 04 ED 4F 16 B7 B7 D7 C1 1E 32 88 5A
 D0 31 AC B7 E0 CE 69 27 36 50 14 5C 44 7E 19 D9
 CE 7C A9 4E 9B 96 AD 46 E9 BC 56 95 D8 0D AE 09
 7F 6D 49 9B 38 BC C0 07 A7 F2 83 66 D0 2F A5 54
 F2 1E A2 B5 BB 49 37 B1 D9 0F 6D 39 CB E2 5C 0C
 DD 9D DC 3B 71 7C A3 CD 87 27 AB CD 50 D5 A4 3D
 13 26 FA C0 14 7D 56 54 BB A2 4D 1C 3C EA B1 45
 70 21 5F BB C3 CB 55 1D AA 40 FF 59 E2 1F 39 8B
 A3 8B 22 0F 23 E0 FE 8E FF 7E 26 E6 18 7B 38 F4
 80 4A 83 6F 66 F7 42 98 C5 60 EF C4 57 08 70 EC
 82 DF C5 5D 95 BC EF A1 03 D4 F6 90 37 12 BC FF
 83 A1 1C DC 07 C6 2E A4 C5 5B F1 93 07 41 4F 35
 AD 0D D0 1D 29 8C 22 D0 7F 4E D6 8F 87 06 00 36
 B1 7E 8A 8F 9D 8F 07 8E C6 54 16 80 DA B9 1E C1
 0F 85 8E AD 3A E4 FA 22 7C F5 33 A8 A0 99 25 BF
 33 FE D1 3E CA 25 18 43 F1 C2 DC DA 5B 6D 5E E4
 81 85 7E BA ED 78 80 AF 89 9A 60 FA 2E 29 49 7D
 71 0E F5 4F FC B5 C2 B5 E9 78 E4 82 4C F1 A2 EE
 61 CB DA 81 08 D0 75 92 1C 8F 2C 71 DA 8C 2C 1F
 E5 6F 1F AE CD E9 D3 0D 4B B9 27 5D 0D AA 3F DF
 DE 9A AD C1 B7 F1 C1 2D 94 69 81 56 A2 67 C6 7C
 BE 52 84 0A EF 5D 81 04 1C 58 E2 BA AD DC 8C C2
 B8 18 91 92 7E 57 0D 47 EC CD 6E 2A AE 4B F3 15
 8D 8B BE DF E3 C3 FA F6 AB F1 C4 38 22 DC E8 CB
 04 EB 4E 0A 3D C8 B9 CC 43 06 20 9E 82 0E DC 6D
 FC 13 38 33 14 FF C7 81 92 5F 82 81 B2 05 FF FA
 3E 24 54 5B A3 4B 3F 8C 46 98 CA 07 DB 21 3C B9
 06 BF 62 80 78 11 C7 28 43 76 DD 1C 21 F7 FE 40
 F4 0E C5 C0 25 5E 77 49 AF A5 8B 7D 36 9D 97 37
 71 8A B7 71 D9 53 E0 4E E6 96 58 5F D1 16 D8 EF
 A3 CA 68 3B FB F8 40 EF D8 EA 11 B9 40 40 C0 A4
 0A 7F 98 32 7D 9F D0 54 1D 8B 8C AD 22 67 2F C8
 31 78 56 C7 C7 74 4F CB 53 BC A3 47 56 CA 28 8B
 67 5D 46 6B 4F 97 C9 24 DC 6D 4E 4C 4C A6 42 0B
 F4 E5 C3 45 BE 6D B0 2C E5 5E 05 86 51 41 B1 F1
 AE 49 BD 78 9D 3B F4 B2 55 69 E8 CE 58 BE C2 E8
 8D E9 13 F5 0A 5A A9 BB 96 C7 D8 B6 9B DE BC 90
 76 72 63 8D E1 E3 3D 06 07 81 56 E1 38 61 2D D0
 3F 1B E9 4A 54 8F E9 C9 CF D9 11 6F DB BC 1D 06
 C1 1C 40 10 E9 87 EC A4 94 1D 77 C6 E0 6F 77 CB
 74 43 80 2D 9C FD FF C5 29 81 D3 DD C0 D9 66 C0
 AF B9 52 91 E7 C8 1D 59 75 E0 A3 11 A9 6F E4 95
 35 30 C4 C2 4B 37 4A DC E9 FA E5 CB EC 8E 68 5E
 0E 5F 2E 14 5E E8 86 25 01 D0 52 25 0D B9 D6 78
 76 74 DB FC 58 73 97 50 B0 5D 48 0E 91 7E DA 4B
 4B 0D 73 F5 D8 48 D8 D0 44 E6 74 66 AC CD 7C 84
 52 9F 0A 88 A9 9A 58 DC C7 55 82 EB E6 0E 4B 0E
 E7 AE 29 B2 B9 0C 46 9A 09 E4 7D C4 0F FD 56 C9
 19 17 7A D3 DA 54 8B 91 C8 E7 92 54 68 DD BB 24
 7C C9 42 88 B6 24 6F 5C 5E EC C1 A3 BA A4 1D 51
 23 73 46 6F D8 67 DC 1B 7C 60 31 33 4A 25 26 9C
 62 B1 E1 73 63 51 36 B9 8D 7B 7C C5 CA 10 5F 59
 F3 CC 82 EE 6C 18 F9 FA 96 0C 19 BC C0 6C FB FE
 E7 51 D8 54 0D 62 29 5B A2 42 6F 8B 6E 37 E7 4C
 18 EF 44 04 BD DA 2B E9 C0 03 9B 26 81 7D AF 2D
 12 46 A5 78 E5 A0 3C 07 4A FA 91 72 B1 38 A4 27
 72 79 8A 98 14 BE 4C FC 55 AA 85 5F 11 A6 AD 68
 01 D0 88 07 6A DD 41 1F C9 5A BD 99 66 7D 0F 3D
 FC EC 3D AF DC 00 4B 50 03 25 A8 91 9C 2B BA C6
 36 32 54 E6 47 13 6C FE 84 EE 4B 9F 01 E1 01 21
 4C 37 22 50 15 43 4D 8E B1 B9 7C 45 EA DB 10 E2
 BC FB 98 C9 E6 A0 F1 6F B9 9B 2E F0 69 85 BC 0C
 CB E0 DF 77 3E D1 09 3A AA 64 AD 18 59 BF 06 FC
 EC E6 73 AF 74 FC C4 8B 06 0D 40 07 AD 67 37 5D
 5D 04 54 7B F6 40 CC 62 77 82 8E EF A0 19 14 1F
 80 BE 55 64 67 4D C3 28 2D 1A 87 D2 D8 12 BB AA
 84 B3 C7 35 35 0C 91 15 52 47 38 AD E7 9B E0 4C
 0C 2F EC C2 2F 87 36 52 6E 5D B2 94 D4 0A 02 6E
 6B 8E F0 4A 7A 93 F0 01 77 08 7E 48 5F 2F 9D 6F
 B3 8D 26 FB 85 94 FE 04 B0 A1 6B D3 34 67 EB EF
 47 AF 8C 7C 14 57 E0 93 30 3D C4 AB 7A AB 24 1D
 59 B5 6D 83 1F EC 78 C0 CB 48 1A 96 78 6F D8 C8
 18 D1 E7 04 F2 06 98 2F CA 54 17 A6 28 E7 8C 4F
 0F 3F B8 DC 6B 03 82 5F 6D C9 19 12 29 6C EC FE
 29 64 44 E7 F2 22 B5 6A FE 62 5F F7 E3 BD 7F BB
 99 04 F3 4E 6B 33 90 DA FE F1 E4 F9 57 70 80 F5
 8B 97 96 12 C0 A7 D5 F7 9C 26 79 9E 9B FB 0D 9A
 EF 1F F4 97 FC 57 72 7D BA BC 6C 3E 16 7D 53 BF
 AA 67 BB 6A B7 72 A1 EE 15 6F C0 24 8C 38 E6 73
 D9 06 5C E5 CB C1 FB 9D CB 84 46 7E 14 8F C0 D8
 A2 68 96 2E 67 E4 69 95 46 71 1B 8C 3E 2C D9 63
 6B E8 9C 18 23 62 C2 EA 18 A3 09 7F 24 A1 61 E0
 FC DC 74 80 A8 F8 8A 47 4D F0 1D 17 82 9E 3E F4
 4A 25 48 AA D8 9D 21 32 06 B5 4F 4D 6F DA FD F5
 49 44 4E 72 02 1F E7 5F F4 14 14 2A 06 C9 F3 01
 67 D7 8E AC EE 82 45 D0 51 BE A8 B3 04 A7 2C 6D
 FF 4D 59 83 A8 AF 43 99 47 B4 AE C4 33 62 FB 75
 D0 2E 33 ED 73 6B 0E DF 64 B2 F2 A7 D2 35 21 C8
 D0 E2 E1 D6 D4 91 3B 22 23 78 5C A3 BF E5 7A 58
 BE A7 62 D6 8E 8B 98 7F 9B 24 25 EA 2E 61 3E 1A
 66 99 04 D2 AE 69 E0 E6 25 6F 8B 8E EA B5 29 AE
 49 66 1B 7D 78 A8 E1 3F 2D 19 8A B2 68 CA 6E CE
 C0 90 DD F1 DC 1C 68 32 74 57 A3 CE 18 4E E8 A0
 22 60 A9 EC BF C3 4C 71 AC 4F F2 70 E6 D8 C3 3C
 A5 A9 AE 1C 0A 7C 8D 26 F6 98 D8 99 BD 58 3E 0B
 DB 88 C9 31 E1 58 5C 5E C2 45 28 60 6C E7 EB AA
 6B 5D F7 3F 32 EF FB B0 08 EF AC 6B F4 80 57 70
 BE CA C7 F7 75 F8 7E 3F C2 63 77 BA 13 0D F7 CF
 9E F1 B1 36 A5 95 C3 BE 59 6C C6 99 A7 41 99 00
 32 2F 11 3B CB 3D 99 A0 69 E1 24 AB F9 DC FE 15
 6E DD C8 B2 44 29 90 5F C9 72 02 3C 6A AB D5 76
 D9 1A 65 06 51 AE DF E1 EA 40 4A B5 36 90 66 26
 BA 71 BB 37 78 D7 F2 8D D0 B0 12 E2 2F B1 11 3B
 8D 65 92 4A 5F 2B BC F4 65 F5 AA CC CB D8 CA C4
 96 B6 CF 79 D1 93 BA E3 5E 11 58 6E 7D 14 EB 18
 8B C0 75 53 4D CD 29 1C 9D 10 6A CC A1 34 34 79
 1E F3 7F FD 10 B9 B5 97 64 A9 88 7C 6C 3E 21 04
 3F 12 98 C7 CD 4B C2 7A EC 44 27 95 99 F0 0C FB
 1C 74 04 4A 74 97 7F FB 65 DD 2B 08 D4 F1 B6 46
 C7 91 FF 26 EF F4 EC 75 A1 9E 89 24 DE D1 3F B2
 D5 F7 B8 5A 92 C6 54 73 06 03 F1 ED 8C 31 2E 6F
 5D B3 30 D4 69 F7 3D D0 9F CA 92 32 77 FB 8D 29
 10 11 C7 66 BF 42 C5 4A 70 BE 8A 54 0A 12 13 95
 D1 1F F5 A9 BE 61 F5 33 19 1C C4 59 75 A7 BA 29
 6E 95 4A 5C F4 B3 E5 18 2B 57 C1 0F B0 17 98 80
 FD B5 7C CA F4 7D 45 AF B1 84 0F A7 34 50 06 8F
 5B 74 C4 D4 B9 FC 23 B6 8B C1 88 C4 26 09 93 07
 08 D1 BF 8A 32 33 57 2C 14 A0 16 15 F6 4A 62 F1
 43 CA 53 E9 F3 0A 6E 51 AC BF 4A 6F 07 B2 D8 3F
 F3 5D EF 45 5A 9F 14 41 24 84 B5 E0 04 51 82 91
 BC 9B 79 F2 65 A8 13 8B EE 4E 11 9F 2F 41 4D 4C
 1E 07 C9 B8 9E 2A 86 AF F3 65 FD 08 4F 54 C3 67
 71 38 47 9B CF 6E BA 13 EE 98 9B 8E E4 54 91 11
 10 A4 C6 D7 B4 0C FA 36 43 1A 69 F6 7E E6 A5 5B
 5F 71 1F E9 0F 3B 15 7A 8D 54 3E 59 1C F7 72 E1
 0C BF 66 E0 58 DF 04 0D 48 9F 57 95 D5 AE 31 FE
 54 74 13 8E BC 9F BD 61 CC 5A 3A 43 83 3D AD E8
 B9 80 F1 C8 86 C9 37 EB 12 B4 1F 5B 0C BF 6E DB
 D2 99 52 77 8F 8E 08 A7 DA 78 A2 64 45 43 3B 02
 C9 45 DD F3 3F 25 6F B6 F1 9F 76 C1 49 8E 3B F4
 E9 82 3F 99 45 79 6C D1 1E 4F 3A 74 F3 32 6D F9
 C4 E2 54 36 F7 65 44 26 35 05 6A FB FD FE 47 6A
 D6 09 72 5E 02 88 09 ED 18 ED B8 34 9F E0 69 91
 16 E2 AB C1 A9 0C 4E 82 32 2D B9 43 2F 9E 5C EE
 68 70 F0 C6 32 6B FE F8 9D AA F1 4F 72 03 16 8C
 9F B6 3C DB 09 3D 6D F4 9A EF 83 DA 1F 1C 2E CA
 3B BF A9 D1 3F 74 10 14 47 48 8D 80 C7 68 B4 2A
 32 1E 3D 57 32 92 29 71 17 BE AE 77 61 8D 91 CD
 48 D9 BC 3B E8 88 07 D5 6A C5 AA AC B1 3E AC 93
 B3 28 1A A7 9D 5B 8C 5C 39 EB 27 9E 3D B4 6D D1
 42 92 BF 95 E2 9B F9 8C 1A AC A8 AA 75 0F 32 BD
 1B 9D D7 D4 0A 94 D6 A0 A0 C5 4D 33 4E 75 3B 8A
 7F A1 7A 82 3B A9 56 C7 B2 24 BE FB 53 E7 B6 63
 EE DC B5 F4 93 4D 53 BB 8C F1 4C EC FD 7B D6 F4
 2D 18 15 EE 49 EA 86 86 46 EA EC E5 A5 49 23 3D
 A5 19 3A 65 47 44 92 E3 43 A1 CC 96 21 89 A4 F3
 BB CD 35 7C 0C A9 89 0B 69 F1 9A 30 EE 78 2E 60
 1A 4D 3F 95 01 1B B7 7A A3 4E 7F 6E C5 55 CF C1
 0C 5E 02 42 1D C8 3E 8C 68 7C 50 2C 4B BC 42 B7
 21 FD 82 21 34 4C 41 51 DD CE 38 80 A5 96 A9 AD
 AC 27 E6 12 E1 12 BC 31 4A C1 D8 D8 DE F5 34 71
 F9 C6 0F C5 76 19 04 0D 89 E6 C3 99 23 2B 3A 52
 4E 16 A3 26 B1 21 44 F1 88 BF 96 0F 3E 85 3D D3
 14 9D D5 9D 82 84 EA 27 E4 F4 7B 9E 1D BA 8B 77
 72 BB 7D 65 B3 2C 66 E0 BC B0 21 EF 1E F9 DA 54
 08 D3 B9 B6 A9 DA 92 5E 81 95 2A 96 7B 5D 7A 12
 07 D9 AE 5F 69 27 1E 06 44 B4 26 48 C5 53 33 DB
 DD C0 C0 AE 91 94 3D 66 B1 E6 49 FD 61 97 4C C1
 35 7C BE 79 94 5A 81 95 6F 31 EC 34 64 2E 4E DA
 BB 3A 0E 2E FE A3 81 39 BA CC 44 1D 6A 3D 6C BD
 98 D6 BB D5 EB FB 06 EA 2A B9 3D C0 F4 67 4A A9
 B1 0C AC 05 1B A9 2A 37 6F 2C 6C 46 8B 84 5B 22
 80 9E AB E2 99 7B AB 36 27 3A 36 FB 5F 62 40 E7
 64 3D 64 48 79 78 58 6D 44 9F 26 85 A9 55 36 49
 16 62 C2 E5 63 90 01 DD 8F CC 7E E3 5E 90 3C 83
 D4 41 37 8D D6 7F 19 63 06 FB 3A 19 B2 A8 17 00
 58 30 DD C5 54 5F EA A5 C1 1A 9B 9D 29 AF 3D 44
 F6 65 21 AF 91 81 9D C1 4E 95 65 1A 1B 23 F2 C0
 6C 71 BC 6D 47 32 8B 41 F9 35 9C 92 38 9C 6B 19
 DD 41 AD 76 10 38 CA F5 DE 7D E2 2B D2 AA ED 55
 8C 33 6C 0B 60 B1 D3 43 BE 2B 22 77 2E 6D FB D0
 73 96 01 96 1F 4A D4 A3 78 E5 98 74 2E 60 A9 66
 AC C7 6E 6C 12 DE EC 47 A0 01 EC 53 30 AB D8 54
 A8 B8 92 4F 19 D6 94 91 4D B9 6F 5B E2 2A 48 60
 80 52 9A 01 9C 6C 1E 92 0C EB A2 A0 4E 11 BE 6B
 41 26 B2 57 78 2F BD EA C5 93 F4 8E C7 04 9B 0C
 63 7D 0C 24 B6 33 2B 67 7F 9C 42 63 36 FE 64 44
 16 51 7D 6F 2F 7A EF 79 CE BA 72 85 E8 A3 D0 2F
 FF 41 5A 31 A1 D2 FC 04 0C 37 1C B2 64 E6 7B 82
 B8 42 E3 82 BC 4C B1 58 4C 49 EB CC 36 DD CE 7D
 37 09 33 52 3F 2D E1 1D 11 98 19 91 DE 6C 52 3E
 29 96 9A D9 3C 9E DA 02 26 1B BA AE 0C 04 51 95
 FC 85 49 8E BC B8 FF 89 CC 05 45 1F 33 9E 2D 8B
 52 2C AA 22 09 38 9E FA A0 DA 45 55 23 09 92 40
 6C A9 11 6B 5D 9E B2 A0 9B A1 2E B4 AF C4 14 BD
 C5 B8 8F 4F BF 17 D1 82 4B 01 ED 59 3F 6B 9F D5
 A4 0B 3C 55 AF 4C EF CC 32 3C 70 3B 3B 97 08 A0
 4E 70 20 F6 05 62 49 34 B0 43 01 4E 5C B4 37 5E
 82 D8 F8 9D 7A 56 68 DA 30 47 99 A8 1E 88 66 61
 4E 57 9C 6A A7 CF 2C 0B 51 7A 0E 4F D0 4D A6 2B
 19 20 B0 70 7C 21 90 0C DC 3E 49 E3 35 4E F0 E4
 0A B4 41 55 A8 ED 58 BF 2F C1 23 27 AA 45 BD D6
 FE 28 C4 5E 40 00 5E BF CF 2F 5F BD 1D 9D 49 4E
 D6 95 FE D5 C0 F8 61 1A C4 8D F8 D3 97 AD A4 61
 9B 8A 8A 72 65 70 B3 23 54 A8 10 DA 25 E8 99 F2
 36 04 05 D0 BF 9F 23 F8 06 41 07 24 25 10 A4 06
 4B D6 D3 07 5F C4 CF D3 E3 5F C4 8B 8E 99 F5 EA
 1A D8 28 14 1D 19 97 99 D5 EE 4B 34 4F 9F 48 12
 69 A2 E1 92 8D 4E 43 A2 92 94 CA B4 63 A6 24 D3
 9D AF CE 98 E6 08 86 79 C4 18 F1 A2 B7 40 70 F8
 F7 55 4E C0 80 18 4E 6B 64 14 FC 66 BA 9B 7F 22
 9B FF 74 76 C7 A9 00 AD 2C 6B 67 3E 6F 93 D7 8F
 C9 BD 30 08 A8 08 37 17 DB FB 3C 9D 99 06 4A 05
 34 6C 14 3B DF 44 67 A4 81 27 34 7A 66 20 37 EE
 03 DA 81 0F FE 14 8F 4C CE 2E 92 07 96 32 D6 E3
 73 26 4B 69 79 2F FC BC F7 48 28 5F A0 C1 AF 0A
 AF 7B B2 E2 85 60 E2 4A F9 AC 83 06 90 E0 DF E3
 18 8B 3E 2E 1A 4C DA 84 97 27 B0 F8 A0 FA 71 D0
 7E B8 EF 84 81 E5 5E 51 22 90 D8 E0 CF 06 47 0F
 7E 31 76 05 67 CA 91 BF D3 EC F2 A3 FC 55 F1 0D
 2B 75 9D C7 62 E8 7B 05 83 0A F2 A4 79 42 8A 98
 56 3A BA 45 80 A4 D7 AE 25 A0 1C D2 2F 13 46 E2
 F9 39 B3 7A 62 2C 73 17 89 5D A2 A1 2D D0 6D 44
 AC 44 74 CA FA B3 7C 61 CD AF 6A 9C F9 81 6E 7A
 CC CE C4 AF 69 D5 79 FE 94 E9 0C 22 AE 4A 08 7B
 26 5C 0A EB 84 07 0A D0 42 B9 9B 77 C5 AD 26 88
 5A B7 3A 6C B3 23 8D 63 AF CE 60 32 D7 2E 0B B5
 8D B7 A9 DC FC CE FA 7F 59 D8 52 10 9C D7 29 DB
 3F F4 40 79 F5 89 21 1C 0B 1A BB 9A E7 63 87 4C
 FC 74 E8 01 64 C3 CA 5D 7C B1 93 1E C6 A8 31 04
 98 8C 41 BA 88 F6 CD BA FA D7 60 07 91 8B 78 73
 57 47 A7 41 70 0F 0F C6 9F C0 46 5B 9E 76 0B 34
 A4 9F 14 B1 7E 29 68 41 74 9A CF 7E C8 F7 C7 7B
 35 25 51 83 99 29 0D B4 34 DF 0F 46 09 D8 E7 BD
 F3 D4 29 B9 D8 3B EE 76 7B 36 F9 75 DB BC 94 1D
 FE F2 3B EB 87 28 5B 82 12 80 7F AD 91 8D 96 2E
 2F 4A 82 27 33 B7 E5 72 89 B4 40 0D 0A 5D D8 22
 1F 57 D3 92 0A 52 72 33 19 42 E9 42 6F 26 94 19
 95 91 51 C4 51 01 71 91 7D 42 1D BB BA 8C F4 CD
 9E 13 BA 39 E2 81 B2 53 CB 2A F2 1B B3 61 4D F5
 3A DA F2 46 74 92 40 0C 14 1B 99 49 18 CB 18 E9
 DA 3F 28 51 4E 57 1C EC B4 82 21 81 A9 D4 A9 FE
 50 1D A1 18 B5 C1 76 83 41 08 B6 9B 45 53 D6 3F
 70 1B D1 ED AB 4C C9 DD 12 D8 FB 84 A1 54 66 BD
 C5 4B 1F 9C B5 4A 69 F8 23 B3 8C 29 7E 69 4E 80
 B0 E2 0D D0 0C 34 F9 CB 6A A0 3B C5 06 53 0C 6B
 3F 9B B1 2A 2F F6 F1 D5 5A F2 33 90 76 BC 21 EE
 9F 48 B6 25 7D 06 F3 A3 53 E5 34 F1 AF E7 0B 79
 8D D5 0F 5C 3F 01 CD B5 E7 60 D2 2F 62 ED E0 93
 9A 53 A0 9A 4C 0A 54 F8 9E 8D BC D0 E8 C6 FC 10
 F2 E0 A9 FF 5C E6 0E 73 53 67 41 97 C1 4F 63 F6
 21 34 59 1A 8C A9 45 F0 BF 83 7A 00 F1 0E 93 E1
 8C 75 6D B8 91 BF 71 74 9D DD 1E 98 EF 3C B3 CF
 BE D6 C5 32 A5 C1 02 98 FE AD E3 C4 E1 50 AB B6
 6B 80 64 AD 00 DE AF F4 12 F1 6F 67 D5 0E 04 E9
 91 74 0D 44 1A D6 E3 C4 9B 85 54 D3 50 2F EB 81
 2E EC AC 9E 88 BA E3 E1 91 C9 6A 3C 96 6D DE 94
 D3 51 8A 89 2F 25 7F 59 12 C8 F2 F5 71 75 0F 0A
 18 6E 78 FF 65 2D 50 36 56 7B 2B 7E 32 46 24 3E
 76 D1 EB BA B2 38 B9 9D D9 B4 85 FE 03 F0 14 F9
 9F DD BC 77 B2 53 41 80 15 A1 2D 5E 8F C8 AD 9F
 79 E8 3F 81 C6 40 65 4D 66 52 26 0C 49 84 C7 F3
 95 E6 40 27 5E 55 41 D7 3D A3 77 82 C9 74 18 48
 28 C4 54 63 D1 44 E9 7D 14 A1 77 38 25 4D A7 80
 CC 30 40 57 45 CE 2D 29 72 12 0C B6 E8 F9 31 E8
 62 59 F1 66 5B C9 08 04 1D ED 59 47 B1 BA 8E 07
 E7 DB DB AD 87 BD F2 D0 62 F0 FC 50 2F E5 11 BE
 80 11 67 34 B9 8A BC C8 84 F0 34 62 28 AB 1F 06
 90 EB 7A A9 EA 3A 2A 43 9D D1 3E DB 0C F1 D1 83
 16 64 8C 0B B2 38 EA 5A 51 0F D5 45 0A B7 85 FC
 E8 0E FD 43 04 E5 71 E8 81 6D 56 F3 27 9C C4 BD
 30 E7 37 5D 5B BE 5E E3 3B F8 B3 1F 54 35 98 1A
 E1 0C F3 57 F0 29 04 B3 C0 97 8A 30 80 F3 5F 45
 A4 C0 CB 53 74 66 F0 F7 7C 23 D3 98 C1 CB 42 67
 30 CB E0 3B C5 16 0C E0 2E 0D 97 36 A2 B1 78 E1
 BB 60 AF 8B 2B E1 E7 1B 39 18 F2 41 B8 2C 50 7A
 97 74 E1 9F A7 A3 E1 DD D6 19 93 A2 2F BD 4F 00
 C8 6E 75 D8 69 8A 88 E1 20 FD 6E 7C 1A C4 BF B5
 5B 53 08 3B 71 71 AE 08 BA 46 C2 1A 31 FD 03 87
 22 27 2E E1 BD 09 0F E9 AB EA 6F D3 49 5C E0 F1
 56 9B 49 EE 08 D9 BC 4E A7 27 9A 90 CC 4B AD 3D
 E3 B2 81 46 25 BA 71 0B 02 46 13 ED 6D D4 4B 91
 D4 BA 62 3F 55 83 E4 06 E8 D4 39 C8 B1 22 C6 8D
 4C 0F FE 3B 2A 34 33 3B 10 1A B8 C4 64 D3 01 3A
 16 94 18 7D 1A 3D 0C 96 EE B8 D1 87 AC 77 F2 CD
 58 5B 6A D2 32 AF A7 50 33 14 62 30 A0 BE 8B F4
 4D 80 67 B8 5A B9 20 0C F5 BC 25 B2 89 99 F6 CB
 C2 99 3B C8 75 C7 3C E2 F5 27 7E 36 66 0B 2C 74
 BF 8D 81 98 F8 6F 7B 2A CD 25 1F 04 68 94 A2 B4
 98 3E 2A 48 4F E5 44 69 95 CF 7B 4B 1A 1F E6 19
 7F 3F FB AB 91 EE 24 C6 8C 5D 8B A9 73 F4 20 0B
 40 85 62 F5 4B 31 BA FE 94 50 6D A2 3A 0B B9 7A
 21 4B F3 0F 00 BD 0A 04 7F 46 9A 54 7A B2 27 EF
 E5 B8 01 A2 06 49 ED 4F DB 21 0D A3 DA E2 BF ED
 63 8B 08 95 05 C5 D9 98 7F 26 68 06 8D 44 06 85
 CB 0A 36 1A 54 93 2F 17 94 3D ED 54 6C 9C AA 32
 91 D1 11 50 DA 21 EE 84 98 1E 6D 03 AE 48 83 FE
 1A 7E 49 A9 1B 6D 74 02 F8 E9 EB CE C0 E7 F1 08
 24 10 9D C7 CF 1D AF 21 7B FD D4 90 31 50 50 CF
 BB CF DE 07 C0 46 77 C6 E2 40 89 9A 7E 9F B0 27
 AA 07 9F B5 A3 99 C6 04 83 AE B2 42 69 D6 22 21
 51 BF B7 9C 81 D9 2B A6 42 87 07 CA B5 95 69 3F
 89 96 D1 3A 8F 20 B0 43 70 9F 00 6C 73 47 F0 F5
 C2 91 25 4B 11 66 D1 07 5D 4F 01 BB 38 2C 29 F0
 D9 F1 05 D9 03 CB 63 E4 7F 66 81 A3 B8 9B A8 EA
 D3 70 55 D4 B6 A9 F5 26 45 C9 26 ED F6 67 DC 4F
 9A 3D 0A E1 67 AC 40 A6 56 09 54 3A F5 6F 8B D9
 2A 41 A9 13 A7 14 A7 15 5D A6 7F 23 97 16 E5 33
 12 C3 BE 14 3F 5D 31 71 84 9D 31 DF 90 AE 7F 61
 BA CD 2D 07 1B 37 46 1F 28 97 13 3C 7D B9 92 8B
 2B 4D 4C E2 D8 58 79 29 35 1D CC 6D E8 91 32 56
 FD 0A CD 2E 0E 3C DE 63 E3 CC 43 65 E3 88 8C FE
 19 57 E0 8A CE 5A D3 42 AE 88 F8 B6 D1 52 70 62
 53 D6 6D 94 53 7B 5B 9E 14 D5 8A F7 78 1B 65 4B
 6A C8 59 F6 FF 84 48 A1 99 39 83 A6 12 94 ED 6A
 6A 0A 5B A8 89 7E E5 DB 11 01 2A 8B B1 4D 6D 7D
 F7 C7 AA 92 78 66 BB A7 00 22 F4 E9 2F 53 F4 B5
 94 92 17 3F 23 08 51 2C E3 A0 DD F2 3A BE AC A4
 62 41 22 84 56 58 1C 1C A4 AA 2E 30 21 7F E7 E4
 45 5C 51 47 B6 C0 99 25 69 03 94 AD E8 50 CA 5A
 0D 8D CE 7E 4C A7 0D 94 16 A8 E2 6C 35 63 78 40
 07 AB 3F 82 78 7B 04 F4 DA F5 69 51 33 ED 19 BE
 E5 28 11 65 12 20 9F 0F F1 35 EE 09 05 DA BD D3
 76 32 2A 69 4D D2 DB F4 B0 E7 5C 56 5E 8F 06 87
 36 58 B7 9D 11 C2 93 D8 FC E3 B3 47 E5 B4 58 7F
 4A 36 0A 6C 89 1B 39 CB DF 66 8F 05 7D D3 C8 E7
 10 B7 AD 30 58 6E 8C 5C AA C7 D7 F4 2E 26 09 FB
 D2 4F E3 5F A5 90 37 B1 AE 1C F8 F7 18 EC D4 D0
 45 24 5C 54 31 30 4B 2B 03 DA BD 1E 51 4F 64 CD
 14 60 20 71 7B 1F D6 0A A6 81 AC F7 99 11 F3 90
 2E A1 99 8F E1 47 E9 F6 BC 5F 01 CD 15 51 BB B1
 30 0E A5 A5 00 B1 7C 17 0B 46 1F 42 8B 2F 36 AB
 6C BC 3B 9C 11 8D 3C 5E 7D C2 12 EF B7 9C D7 FF
 B1 80 F9 17 C5 D5 E4 37 0C 4C DB A5 BD 1D 5B 07
 42 29 9F 45 0C 55 10 FC A8 BD EA DF 24 F5 7A 72
 E3 BF 7D 71 62 B5 A5 8C E1 C9 5E F8 24 AF 73 85
 73 94 4D 6C 32 C3 5F FF 5F 7C 45 F6 30 B8 54 4A
 89 A3 58 5F 4D 30 D2 2A DB 96 1A D8 1A 6A 6A 6A
 D0 E4 49 CC F3 2E 16 7C D9 E9 3D 05 0B C5 B1 AF
 F1 33 95 EB 6D E3 E5 97 6C FB CF 94 D7 29 26 07
 89 5E 66 0F B2 D6 04 A7 14 0C 79 FC 1C 48 12 5F
 D8 64 9E DA DC 9F D2 67 AB AF E3 89 A6 67 E1 D3
 CF 85 AE 09 91 9D D7 10 05 FC 91 06 B2 33 0D FE
 C3 D9 4F DA ED 66 D9 2F 2A 3F A5 F5 BD 54 57 58
 E8 75 F1 E9 97 3A 5C F4 0B C2 9A 16 75 49 32 3D
 47 C5 B1 B2 E8 AE A0 87 DD 91 BE F9 24 0A 19 98
 CF E4 A3 37 1A CE F5 B2 2B B6 6C 46 9B A6 36 57
 39 F9 FB 07 13 2C D7 62 0E 35 0A 89 17 00 F9 4E
 43 2B 78 94 57 85 C2 80 D3 46 48 B0 4A 73 C2 4C
 D5 26 2E 94 EB 1B 33 27 5E FB CE E0 6D 4A 55 A4
 4D B9 53 F9 13 F7 36 B3 2A 23 A4 70 14 94 AA 35
 28 3D F4 55 0A 63 15 A3 DB 9B 46 D8 D4 F8 90 FE
 37 67 44 85 6B 06 6D 93 C0 91 A7 F0 A1 16 E0 B7
 7C 0E A9 71 50 16 6A A7 7D AB 00 00 4E 02 FF 55
 E2 30 28 AC D3 FF 7A 3F B3 8C BC 81 74 2A 40 21
 BD 68 BC 17 D0 75 E3 B7 E4 31 53 80 C6 70 03 91
 21 BF 27 C9 D5 BF 95 CE BA 8F D4 93 06 40 F3 FD
 BA A7 CC 9A C1 49 B4 38 E2 40 B2 6A 51 4C 02 5C
 A7 8D B1 28 5B F4 BB AB 8F 5B 5F 49 0B 18 BF 7F
 3A A5 39 CF F1 78 9A 90 EA 20 31 F8 6C 94 68 AC
 E3 87 7B FA BF 0E 2C AC 1B 43 BF 62 F5 91 AD 51
 A4 FF 13 7E C6 15 B5 CC 26 52 41 A8 54 E3 8D CD
 98 EA 1D 58 0B 6C 19 5F 79 67 63 17 C7 39 7E 69
 1C 2D 79 BD 8F 64 A0 89 06 35 8D E2 C1 50 11 76
 74 64 AD 21 86 0A 9B F6 17 82 77 E7 79 F7 02 83
 A2 F4 2B 31 83 DD 03 29 08 05 B9 63 9D 43 80 D2
 51 19 B2 FF B5 49 CB 3D 57 C5 40 28 15 8C 33 F5
 65 34 81 C8 F4 A0 81 18 FC A2 11 C9 F1 8E 78 13
 CC 50 C4 32 86 64 51 20 C7 9F 22 53 46 3E 57 2D
 05 AE E0 E1 A1 58 E7 D1 97 32 5A 86 50 69 52 30
 AF AD C8 5A 73 1C 4F 10 0E 60 F1 B6 E2 BE 88 52
 BA 71 4D BF 8F C5 DA 0C 41 C0 87 58 1A 63 FE B9
 D5 02 E6 17 0A 86 DA E4 37 2A 82 8B 0A 67 32 AB
 37 DD 72 FE 5A 1F 0A D2 AF B1 E3 CC 6F E1 CB D7
 E5 34 08 69 D0 B7 1F B0 37 69 D6 E2 97 79 F4 51
 79 2F BF 00 E5 D4 48 DE E5 03 9E 63 35 73 51 C5
 4F 34 31 07 D6 B6 2A 01 CC D2 DE B7 AD 6B 07 A0
 98 0C 85 88 C1 E5 77 C9 B6 95 CB E1 62 FF C1 73
 96 22 22 46 B2 23 CF E0 1C F1 49 CE 93 18 08 EA
 A7 C6 10 8F D0 63 07 E1 61 BC 1D FE 6E 83 C1 D1
 8E 7E 38 B2 5A AF 9B 88 E4 1B FA 90 4D D3 79 2B
 CD B2 29 4C A7 4A B9 85 8F 81 8D 78 3E 84 31 EC
 A2 D8 A2 21 08 DE 0A 25 EA BB A4 CF 8F 34 43 91
 98 2B 28 38 1C D6 D1 9D 67 F7 92 02 F4 1D E9 FE
 C6 E3 A9 63 EB 20 99 37 F3 C6 07 C0 DD 2E C6 C0
 36 3A 4A 07 9C 64 41 A1 16 C9 69 0D AF BC C5 02
 FD 2E 7C AF 87 05 FD A9 58 4A 45 2D 42 B0 18 3E
 DA 7A 95 C2 2D 05 9F 7E 48 A3 7B B1 2B 69 64 E7
 DD C0 71 0E 32 EB 07 C1 A2 02 E4 DE 86 64 F1 71
 79 0B 7E EE 91 3A CB 8E 32 36 68 8C 27 71 27 83
 A2 68 6D 55 DA 6B 15 7F CF 0D F7 AB E0 84 92 C8
 58 66 BD B7 88 7B 52 FE 73 60 99 C7 8E FB 8B 9D
 02 3D 17 D2 D7 DC 4A 6E CD F1 D9 2E 8A C7 10 D0
 77 26 3E BB 37 91 D4 7E F0 91 61 A4 2C 39 2F 3A
 9A B1 F0 B0 19 D5 32 B2 FB D1 A3 CB C5 77 EA 12
 DB EA 41 8E 26 AC 47 B4 C9 4C 64 FF C5 68 C2 26
 0A 7E B7 54 4F 11 2F D0 68 26 BC EA 1D 7D 6E 8A
 B9 94 FB 23 A4 B2 11 93 E3 98 5D F0 8A AA 5A 59
 E6 6E 54 C6 1A 20 5A DD B9 0E AA 7E 9F 37 69 91
 56 19 26 23 B1 9C 81 17 17 F1 A5 D4 55 09 4C 1F
 B8 F2 3A 07 A1 6D D8 45 5F 18 6A 8B 98 E0 D0 68
 0E 40 61 14 B6 74 1B 8D FF CD 4E A1 45 8D C6 47
 B7 DA F8 23 1C 5B E2 02 A5 A6 90 1A D7 69 6C FD
 F6 46 3E B3 12 BA 62 C5 AD AA B6 03 33 FC 3A 32
 B5 BA 24 4A 94 BC 66 FF 27 58 8E 7B BF FC F8 20
 F5 EA FB 3D 62 FE 62 68 AA AE E3 86 11 88 F5 57
 74 6C DD 94 20 F2 F8 1D 62 66 41 FE 6D 64 B9 35
 72 F8 99 27 DB 54 A2 0B 8B 9F F1 FC C7 C9 9F 84
 D9 BE D1 52 2E CC EF 15 51 11 8A E9 73 8E E7 C7
 82 60 2A 91 6E E7 C8 B1 C2 7A 90 A5 88 B7 37 05
 D0 73 CB 5F 52 13 C1 B6 41 03 9A 08 9C E3 1A 73
 54 7E FE 73 8B 93 00 65 7B 46 C0 4B 07 3D 2B 4E
 EF C4 88 04 05 1D F2 8A 7E C7 70 CF 57 6D 2E 50
 68 2F 7B 98 1D 9B 6D A0 7F 87 3F 4C 0E C9 8A 9F
 F5 87 0B B0 E9 6A 90 8A 38 23 0F FD 3F 97 BC D8
 F3 8A CD 21 33 A5 B5 6E C3 79 B2 78 F7 6B A7 AB
 EF 1F 4A 2B E7 1D 62 1E 67 34 57 18 EF B7 9A EA
 96 2A BD ED 67 8A C2 7F FF 23 9A 09 2A 2F 75 71
 9B 1D A4 AA 5B 32 05 88 F3 AA 11 D6 6F B9 5C 83
 CC 07 71 71 96 8C 65 35 2E 4B 11 76 09 F6 6A 42
 A5 29 3D AF 83 47 40 BD 71 45 CF ED B6 2A 58 16
 33 BA BB 9A 25 84 AA AD F6 34 6C 39 65 D6 98 FC
 6B 9E C4 8A BB 26 A3 6A 7B 71 90 10 1E BB 65 C8
 DC 73 22 8A 05 F4 5F 11 F3 94 43 D5 D5 6F 3D 57
 14 49 FE DD 4A B2 BB CB 57 82 9E B0 2B C4 5C 72
 66 7A 04 73 D3 54 1A 98 3F DA A9 7E 49 C6 A8 F1
 ED 60 59 67 5A E7 89 E9 A8 A1 66 A5 C9 CB 65 8C
 7C 4A 67 8C D5 08 65 94 2A 48 75 97 B4 C6 79 AA
 6F 3B C7 89 12 A8 19 67 C5 F2 5C 9A B7 C6 54 4D
 BB 82 12 4C 21 81 5E 4B 1F 9E A2 12 40 7C F5 CF
 4E F9 9D 75 4F 5D 87 C6 E6 5B EF E8 45 B4 F2 91
 07 96 ED A1 C9 B0 76 D7 02 95 69 9F C6 AD 77 6D
 0D 8C 0E 8A 18 D8 AE AD D9 8F E5 09 AC C6 6F D4
 4F 9F 4D 44 AE 9F 85 D6 EB AD 01 25 1A CC 1D B8
 37 6F EB 2B D6 E7 D4 10 E9 8D 19 07 DA 6F 6C 46
 05 CC 69 A8 E2 D1 9B E3 60 F9 7F E4 3B E7 38 24
 4E 55 DD BF 4A D8 73 D8 1F FF E1 74 1B 11 28 17
 03 68 98 97 F2 3F 1A 19 3B BA 8A DC AA 49 0B 12
 F0 AF 41 B3 5E 27 E0 94 7D 6C E9 81 C2 E4 50 7C
 D5 48 E5 DD FF B4 B6 A5 28 BE D1 4B 6D BF 25 70
 EE D2 98 BD 50 55 4D 20
* End 4151370085 2909464228