* LTspice Encrypted File
* 
* This encrypted file has been supplied by a 3rd
* party vendor that does not wish to publicize
* the technology used to implement this library.
* 
* Permission is granted to use this file for
* simulations but not to reverse engineer its
* contents.
* 
* Begin:
 2C CC EF B8 BA 94 0F EC 12 B7 93 EE BD 53 2B F9
 2D 71 10 3B 64 B3 5F A1 F5 83 BC A4 3B 03 B9 0F
 5E 0B C5 55 30 24 BB EA E4 60 06 54 9B AF 49 2F
 DF CF 0E EB A9 AE 6F 70 D9 72 43 74 D5 B2 14 D5
 7E 41 D9 EB 22 D9 64 C0 5B F7 06 FC 60 41 A8 7F
 CA 31 FE 2A 81 D8 8A 78 EF FD 1F FA 0A 32 DE FE
 C9 AB D9 31 F2 96 CE E4 70 D8 CF DD 98 B4 BD CA
 B4 91 72 80 E4 42 9D 9B CF 2D C8 78 C7 2F DB 16
 52 B0 E7 60 38 B9 F9 73 1F 05 80 50 7C 00 DD BC
 88 49 EC 62 01 70 DA 2B 7E 30 D4 43 8F 10 EB C6
 A0 60 72 12 22 AA 73 6A 1C 0A 10 29 E4 B1 5B C5
 84 F0 09 8C 24 A3 6F C5 0C 0F DA 08 2A 7A 98 48
 EF 45 20 5F 53 B0 3E 5E B1 F3 0E 19 84 81 6F 4A
 EA FC 93 6C 5F 09 22 46 4E 77 1B F8 31 4B 2C 45
 1A ED EB 78 EC 0F 4D 17 0B 78 C7 90 90 63 44 57
 0F 50 80 FD 91 F4 D7 5D 50 AD 2B 70 DC 97 39 03
 71 49 99 EA 55 BA BF EC 6F 01 74 CA 8C 1B 91 43
 9E 6D 4D 44 44 C5 56 0C DE E0 FB 8F 9E 33 65 C2
 A4 2C 09 99 8C FE 3E 5A 9C FC 2E 60 83 A8 AD 36
 68 9E F2 3C 13 8C A5 19 D8 FD F2 04 72 C5 5B B9
 D6 96 7D 9B 52 83 EE FC 44 14 7F 23 92 17 4B 53
 4B D7 41 CD C4 D2 23 1A 74 14 0F 19 CE 4B 9B 10
 35 61 23 2E 95 50 D1 81 3B 58 92 A3 C6 96 20 E8
 0A 7B FF 38 38 08 7F 7A 71 CE 6C 8B D1 FD 35 4B
 D1 65 CE 0B 58 D0 D7 4C BC 4D CF 0A 50 65 90 EF
 50 2B 1D BB 4A E5 A4 5A FB C0 E4 55 2C 6E 8A D3
 1C 32 24 B9 1E DA F4 4E FF 9C 6E A5 D4 73 77 97
 5E 23 70 86 F2 20 77 25 90 AB 8B 8C F7 5B 51 62
 8D F6 6D 29 78 85 26 DA 7B 21 57 09 34 9E F0 2B
 89 9B 8F 6A 46 AA B9 B6 79 1D 86 AA 31 92 96 9A
 93 EE A4 E2 F8 52 1D 58 96 F8 3D 75 6C D5 12 C2
 18 B9 60 C5 CD 76 0C 10 EA 8F 09 D6 6E FD FE E3
 35 76 97 D4 35 14 F9 B5 0D DD FA 4C 63 64 69 D3
 21 DF 50 89 88 87 F9 6D 5F 7C 21 58 F0 FE E6 5B
 C8 C2 A5 AC F3 70 62 61 C7 89 07 26 99 0E 56 95
 48 63 89 8D 4A 7F BF 41 41 27 95 B2 4A 36 33 1D
 5C 40 AA CD 49 EE 39 E9 F0 51 85 CC 7D 03 D3 EF
 7A AA 6B 10 F8 0D A3 D3 5A B5 D1 24 E2 06 F1 06
 C6 4C 28 F1 7F F4 4A D3 C1 F1 83 C0 59 C4 64 EF
 54 93 D5 C5 7E 52 20 56 E6 60 95 E4 66 7F CC DD
 6E 6D 8E B7 9A 57 07 64 A6 47 5C FA FC 48 E6 9F
 8A 37 D9 06 B3 82 4B 18 71 A9 54 E6 58 87 26 93
 14 4B 3D 5C 4B F5 04 3F C8 24 9A 1E 2D CA B5 A5
 E1 1A 56 10 DC 48 BE B8 26 BA 36 16 59 7B B8 F1
 0C E7 25 7D A1 06 E2 BD 69 39 0B 0A 4A A3 4F 55
 F6 C9 3A F4 07 AA 0A 1F FB 25 59 69 CB 92 53 DF
 DD B0 CB FE 95 2F FE 13 ED 77 4A EB DC 49 E2 CA
 25 D6 39 FF 80 4F 6A DA 25 20 59 21 EF FE E8 8F
 35 32 44 73 F3 DD C4 BB D7 8E 6A B7 A0 CD DC 65
 6B 18 21 C9 CE 18 BD 08 62 4F D6 90 A1 3B E2 F7
 57 98 C8 9F FD AE 3C 20 88 0D 34 EF C7 6C 5D 25
 B1 2D 3B 40 C6 9B E7 CD FB 60 33 F6 62 4E A2 A8
 57 41 65 97 7E 4E 79 CB F9 54 8A 41 43 83 44 4B
 56 8D 5B 98 2D EF 16 EF F6 89 CC 8D 3A 79 63 0D
 62 62 A0 6B 38 52 2E 55 5A 28 E2 CA 72 67 44 CC
 57 FC AA EE 48 05 53 86 E8 E8 A0 BA 2A 97 94 68
 22 0F BF C0 A0 71 EC EA A6 78 A2 D1 04 87 DE 1F
 5C D8 F7 8A D2 25 D0 7A 3F AF 04 ED B3 CC A9 78
 26 A3 D5 EB 93 F9 25 1F 76 42 0B 4F 4A 76 A1 C6
 85 A1 F9 BB B1 6C C9 A0 A6 FA 9C 21 F2 94 92 A5
 26 1F DB 01 D3 BD 73 91 CE A3 D7 E2 0A FD E2 75
 BC AC 6C 24 C9 4B B9 44 5B 1F 77 55 80 DD 6D F0
 BD 68 82 11 26 B9 C7 7A CC E1 BD 42 64 C9 C3 D7
 EB 43 92 82 96 48 5F 7F C3 59 F6 F0 B4 9F 99 CF
 F5 2F 7A 37 8A A4 40 55 C0 E4 9C 32 D0 DA DE FD
 C5 BA 3D F6 86 D5 E6 FE 01 C1 9B 02 C4 C5 59 97
 C6 9C 46 0D 56 F4 E0 1F 63 5D 2A 51 06 3D 47 CE
 4C 5D A8 C0 A7 D9 F3 9E 1C 1B 5A CE 81 AB 98 B3
 21 B2 0F C8 23 AB 2E 7A 5F 6E 76 38 80 7C F6 71
 05 E2 CB AD 36 7A B2 D7 72 CD 45 C6 DB 7A 4B D4
 6A 87 C5 DB 02 A5 EE 39 39 E1 40 11 B8 92 82 F4
 56 73 C7 00 E0 69 66 B5 C6 3B 42 0A A6 4E 1A 3C
 61 7A 2D 5F 7D 2D 33 1B 73 52 2F 91 5F 23 01 EF
 7A 6F 85 06 2E 22 B5 47 85 B1 9D 79 70 85 1B 65
 96 AE 32 23 3A A4 4E 12 C3 6B 62 9E C8 4D 24 26
 C3 25 21 B7 23 AE 3A B7 CE 05 F1 EE EB 52 5D A9
 F1 07 EF 1D 67 D6 F1 15 AD F1 7D 55 8C AC 97 78
 A0 33 32 55 26 36 48 DB 60 C0 02 75 DA 70 22 A8
 8A 12 9D 7B E5 A8 72 F6 73 BC 1F 6B A1 E3 2C 0E
 1D 08 40 41 3A CC CA 09 76 D7 88 4D 19 BB DD 15
 84 9D BF 02 B1 48 09 5B FF 19 CA C6 BB C2 72 34
 50 D0 8D 56 BB EB 42 BF 38 EF E1 BE FA 23 6B D6
 E0 1D 8A 0E 86 B9 64 AB 3F 19 63 19 91 58 4F 64
 D1 64 9B A1 E5 66 73 43 6A 99 EB A0 1D 97 CE C0
 D1 4B 9A 80 8F 3F 7E C7 62 6B D3 9B 9A 20 AF D6
 F2 76 82 6E 86 88 4F DA D5 B7 C0 21 90 8A 9A 84
 51 34 EA 4D F7 55 70 97 AC F9 78 5B 60 6B FB C5
 48 08 17 2D 76 57 D3 45 0D 19 85 8B 53 A4 F6 73
 82 D5 E1 88 25 C5 22 2A 20 1C FF B3 2C 61 5E 77
 85 D6 2A 80 78 AE 57 BB A8 1E D7 9B 74 DB 99 30
 F4 59 C0 9E 69 FB F1 85 21 72 0F 34 89 85 B9 CB
 BB 62 95 F5 F9 08 5F 3D EF 3D BC C5 EC 8F 68 7C
 46 DB 79 FF 57 69 95 59 03 CE EA CE 05 CD 74 50
 CF 55 84 64 7B AE 65 80 F6 CF E1 55 86 F5 4C F8
 62 97 63 AA 3C 75 0A 49 68 84 91 D0 8A 4D 14 8E
 32 39 55 AC A0 D9 72 38 D0 9F 04 89 86 87 B9 AC
 98 A9 65 94 14 15 E4 9D C3 BB 2C 48 6C 2C A2 B9
 39 E3 76 E2 17 93 94 93 45 7B A3 D9 7E DF 37 4C
 89 02 BD FD 94 FC 0D 12 00 AB 07 FE C7 5E 41 2E
 0E CB 92 87 3E 28 BB E3 6C 1D CC A0 1A 61 E6 34
 55 42 D1 83 7A 41 9D 4D A8 41 4B A6 D3 62 C4 F3
 03 5E FB B9 C0 7D 69 A6 9D 41 E4 2F C5 76 97 F7
 76 67 00 67 B8 5A 3F B9 CF 42 6E 57 6B 2E D5 F1
 B7 0B 3C F4 D1 BC B8 10 8A 30 DC F2 5C C0 80 20
 63 DE 47 C6 3B 7B 00 80 79 BE C9 61 B6 8D 31 36
 D1 F2 8B 8F CA 9A 2F 0B 64 63 04 96 77 A8 65 23
 AF 4D 00 DC E1 AB 37 68 C0 A5 B7 D4 09 49 9A BD
 CE AF 14 4E 41 6D 8E 87 F3 E6 2B E6 E6 88 51 B8
 78 92 AA 66 4E C7 5A 2A 7E AF B3 E7 52 1A F3 41
 D4 5B F9 BD 40 68 6B 02 94 5F DD 76 FA 9F 5E E0
 A2 1E ED 8D 57 92 BE 5D EC B8 D3 6D D1 92 54 D3
 62 BD 58 78 65 CE 9D 05 C2 BB 9F 13 2A E5 86 87
 EB 1E 16 97 E5 81 37 AE 2D E6 5E E9 B4 7F D0 CD
 E4 9D 90 75 AE 1B 1A 05 DF 94 FA AF 1B EA 84 F0
 65 B7 C1 F1 C9 26 C5 6C F3 38 C1 AD E5 90 95 3C
 40 28 BC 0D F5 D0 04 61 A8 A6 E8 56 5D 66 BF CD
 1B 6D 68 E1 3E 3A 8B A0 96 AD FB 97 AA 3E 7F DC
 73 C0 12 5F D0 D4 C8 4A CB 7C D4 A9 90 40 1A A7
 81 EC F7 6C EC 90 58 E3 E2 0F C1 D2 51 C5 64 00
 4D E9 EB E5 E5 4C 4E 33 E5 69 DA B4 03 FA 05 78
 B3 5D DC D7 15 76 CF 13 45 51 FA 25 84 97 C3 82
 56 37 85 B9 14 F0 FE 12 EC 24 F2 38 18 3E 71 E3
 FC F4 DA AE 15 AE 23 97 34 2D D6 2C C8 B7 94 47
 B5 93 0D 2F C7 D5 0A E7 56 81 8F 7C C1 6E 48 75
 49 CA CD 44 64 65 8A CB 02 17 21 C2 8C 12 54 C2
 72 8B 61 9D 62 88 CB F8 A2 77 1D 99 36 B3 BE EA
 29 BC 36 1B 1C 95 3A 49 BC 61 2E 7A 37 9F 09 C6
 66 25 DF 69 FA BB 13 F7 35 E6 D8 14 65 82 B4 F4
 57 8B 70 02 F4 09 C2 9D 4C DC 57 EF BC 1D 12 3D
 FD EA 92 85 54 33 8D 7A 3E 5C 44 5B 20 6C 1A 06
 D6 B0 DF 68 A6 59 0A 89 18 FA EB 5B 24 AA 2C C9
 CF 5D DC 3E 7F 92 55 7E 7B 00 F8 AE 3C 47 50 E2
 92 EC B6 4B 93 07 8F D4 F7 93 90 A3 A7 63 EE A3
 29 C2 F5 20 6C 50 3A E9 89 F2 28 D4 6F C8 3B 47
 05 34 CF B2 01 53 D7 69 9E 7D 47 16 EA 6D 0B 5D
 BA FA 98 44 22 81 D8 55 74 4E 85 C9 AB F8 5F 7C
 83 D2 DC C3 71 6B 9E 29 E2 DC A1 78 8C 61 70 E4
 CB 09 37 12 D8 4B 84 26 E4 9F 8A 2C 0C 30 7F 81
 76 E5 FF 48 FB B2 3A 96 83 B2 D1 FF BC AA F5 B7
 F7 C0 90 DF 70 6C 76 A6 43 4A A8 9E 23 69 29 E1
 15 D4 DF 51 1E 93 C3 21 2A D9 CF FB 03 C4 A6 1B
 D7 3A C8 62 C3 F2 F9 E8 5A 51 A1 FC E9 45 E3 BE
 E2 85 11 7C 26 30 BE 78 02 F5 D3 FB 55 EB 90 98
 6F 71 0A EF F5 2C 77 04 A1 19 07 0B 50 3A 06 4D
 68 C3 AC BC FC A2 FA 61 D7 6D 84 F9 12 42 9B DF
 30 EF 6A 77 AC 64 4E 46 28 82 E5 C9 AC 43 A8 A3
 E0 62 72 AA 46 4E E6 7B FE 72 B5 D1 A4 8D 88 C2
 EB 3C 73 28 B4 0F 32 37 65 E4 98 44 59 1E 7E CD
 83 3F F5 ED A7 A9 E5 17 74 A1 B4 D2 FD 8D 7B 0D
 C6 76 25 D3 00 57 59 9A 30 74 C9 3C 87 2F 81 9E
 91 55 EE 29 33 7E 68 10 8E 77 60 C8 43 1F CB 9E
 3A EF D5 8B 0A 8C 8F 73 19 19 8B 09 3B 76 C4 F2
 DC A4 CD 7D DA FA 7F F0 2C 20 B3 52 C0 B7 04 3F
 D3 6F 01 0A 32 51 17 0A 94 64 FD D0 9F 4C 57 43
 39 0B E5 61 DE 20 32 AB 39 6B B6 EB 07 29 0B AB
 CD 39 E5 C1 ED D5 A1 B7 FC 51 91 30 D7 C0 48 A0
 DC 98 03 C5 D4 D7 11 92 44 85 EE 3C 78 86 9D C9
 04 82 58 BF 7A CE B1 A0 66 08 6A 1B 2A 4C 08 89
 A8 17 96 02 DC 20 6F 10 E1 C5 01 73 25 85 2D E8
 8F E5 E0 62 19 46 A5 04 1C 70 25 EE 0E D0 76 A1
 2F 65 04 6D 1E 1F 4C D3 94 D2 D7 AA D1 27 81 99
 E7 6C B5 98 8C D7 7B DA 0B 52 F9 2F 6F 81 69 53
 AB 19 38 74 DC 80 B1 C1 DF 79 42 A5 B4 33 FA 92
 04 7B 92 A5 83 7A 29 C0 AD D6 F0 28 AD 48 5C 9A
 2E B6 BB 04 3E 24 96 EB 6F C6 24 4F E3 B6 63 5D
 2F 8A 5D 86 D9 CF BD 6A 29 CA B5 8A 94 D5 CC B8
 EA 13 91 E0 4B 5B 02 11 6A EA 44 68 3E 2D D0 E2
 0B F1 19 5C 23 21 C4 74 34 07 15 C6 59 AD 8D 4F
 29 2F D7 8B 32 0E 0C 68 86 7A F0 E6 B3 26 42 9C
 C3 C8 7F F3 7F 4F 49 2D 65 EA E2 B5 79 5B DD 88
 04 AE 43 F1 B1 25 13 3A 70 32 02 B9 5F 92 FF 1B
 FF 51 B6 10 25 8E 6C BF 8E 26 E2 5E 73 23 71 B8
 1B FC 20 A9 08 B8 14 FD AF 8E CE 8D 99 E3 8A D1
 5D 45 9A C3 C0 4C 37 F5 E2 AF 32 0A E6 E1 44 CD
 50 E6 5B 7B A5 10 BD 89 7C 60 51 3E 07 03 A1 4C
 2B 92 78 BA D7 39 A7 91 44 49 5B D0 24 CB 65 1F
 67 FB 25 84 36 8A 31 F3 DE BD C2 AF 0C 42 43 A4
 3C 17 EB 69 6E 63 85 5A B7 90 EA 8C E8 72 2D AF
 CF 2E 61 79 11 2C 98 0B 46 2D 09 5D FD D5 39 52
 DE A3 39 43 18 96 7F 9D 72 44 E4 12 8B A7 1E 0E
 44 DF 0C 7E 9A 16 55 4E 0E 0A 54 36 07 42 87 B5
 6F B6 9B E8 AE 4D 8F B6 CF DE F4 16 10 C6 4C 07
 C4 77 37 8D 4B B2 7C C8 01 09 0E 9A EC 3B DF 8F
 D2 F8 81 18 D4 79 EE C5 17 70 45 CE 00 F6 9F 7B
 7A 49 8F F9 06 AE AE 42 A1 AA C4 5C 33 67 3D BD
 C8 28 8C EB 55 C6 8C 8C 20 CD C5 5B 31 CF A3 BA
 1D 03 C4 A1 70 F0 EF 01 42 8F E1 18 C9 9F 96 E9
 F8 15 7F 3B 7D 6B 06 CF CB 1D BA 38 19 33 96 37
 FA FC 57 BB 90 05 34 86 6D 6E 43 B8 41 D2 FE FD
 8E A0 2F 67 5B 31 C4 D2 E5 D7 34 30 81 B4 F5 EE
 73 3C C4 07 1A 7F 2E D8 02 3A AD 12 29 8E 1E 9A
 D6 DE DE 74 79 D4 3D C0 C4 26 AB 32 26 A5 32 38
 2E CB 39 6A A0 44 84 DB 83 49 B6 C4 A2 F3 DC 43
 44 D0 5B 9D 4C 65 0F E7 BF 6F 00 85 86 FE E3 6E
 79 AE 70 7E 1C 2A 3C 24 94 DC DB 13 08 B8 4C 48
 19 D0 F9 5A 2E BA BA 10 52 4F D8 86 96 E5 5D 4C
 B3 16 13 D9 F3 42 29 0F 44 FF A5 5C 9C B9 A4 0F
 1B BF F4 3F 75 39 F3 BB 1F 57 CF 7E E6 D2 5C 68
 2F 44 6D C8 F3 2B 5E 23 05 BB 6F 8D 0D 96 B8 6D
 43 98 02 3A 41 54 C5 2C F7 6E FD 29 CB CC 67 3F
 CB FB 25 98 5F 99 1C EA 42 BE 44 A9 E1 12 67 34
 1B D3 8F 10 1D 82 1D 00 AB 53 77 28 47 64 E4 0C
 39 86 16 23 C3 BC CB 87 B5 B9 66 1E 40 05 C5 D0
 C6 57 1C E9 EC E2 80 8A F0 84 4F 70 23 06 B2 94
 58 3E 7E 8B 3E 20 C3 82 12 69 EA 77 10 43 9F 5C
 09 8A 1D 22 C3 A8 01 E3 DA E8 83 ED 4B FE 6C E8
 70 81 45 7F 88 C5 A4 3B B9 24 C7 4E 9C A1 4C 4E
 6E 5E 39 5E 24 B6 2F 47 CB 44 BC 50 28 E8 0C C9
 3F D0 AA B3 52 EA 62 98 BF 71 0F A1 3F 2E B9 1C
 24 44 88 C7 00 4A CD 65 ED D7 C9 8A 39 79 32 86
 57 46 74 C1 61 65 04 6E E6 85 6C 01 0A 22 CA C6
 97 6E 61 54 CB 76 8E 85 BD 0C 61 B5 89 71 8F 3E
 17 AD E1 8C 95 D4 86 7C 26 97 78 2A 84 44 AC 37
 EF 67 55 DD 2C 9E B2 88 67 EC 59 61 90 19 51 6C
 92 1E ED AF 67 FA C5 69 22 05 30 BB 1D 5E 69 3B
 4E 3C 17 B1 4F 75 72 F4 9E 36 3F CF BE 08 A6 5E
 B6 AB DD 22 A2 03 CC F5 7E 40 FC 4C 64 16 E0 3C
 0D 2B F3 F0 DE 42 9B A3 D1 78 06 37 2E 8A 35 E0
 3F 4E FF 2F 0B 7F BC D0 29 0F 97 34 6C DF 37 BA
 4E 72 9E 22 90 68 34 D4 D4 0A A3 7A D0 3E 67 CE
 1D 68 E1 74 8D 37 D4 9A EE 54 C5 83 BD FE EA BE
 9A D8 EE 94 CB 41 85 81 0A 71 D2 26 8D 75 BE 45
 34 03 4F 01 D8 83 10 B9 87 31 82 B6 F3 41 46 9C
 99 7C 12 39 88 48 50 F6 FA 25 75 24 E8 ED 37 F2
 E6 16 6D B4 CA 10 C5 B2 61 9A 3A D4 1A 05 E7 E4
 8A DD BB E8 C0 D9 A0 0D 78 DE 99 C1 1B F9 7B 5C
 A2 C2 25 06 D4 C7 3C D3 F3 EF F3 AE 07 19 1D 05
 81 7E 92 A5 C6 87 98 04 F1 E5 71 78 22 86 F6 3D
 CF B1 F3 BE 6F 66 89 95 B1 3D 46 39 79 CD FF E7
 4E CE 4E B8 8E 9B DA F3 12 06 3E 1D AD 2B 21 3C
 1D 13 1C D0 0D 60 69 94 26 E5 87 43 D6 5B 33 34
 10 2D EA F9 BA E6 45 51 A2 AE 59 B2 6F DE 32 0B
 69 09 B0 E4 81 13 A8 67 0D F6 41 D5 0C 8F CF DB
 7E 5A E1 5C A1 49 F0 A3 88 C5 92 33 04 FD C6 A0
 91 F8 34 A1 0B 04 D2 C6 2D 16 C4 A2 F4 C9 2F 28
 35 50 7B 2D 26 5D AC 4C A2 01 2D ED 4E 43 0A D6
 FD 6E 97 CF D4 6B 74 5C F4 04 A5 84 58 E4 83 08
 A5 7A 6D 9B BC 28 01 82 96 6C 30 70 40 A9 99 8E
 84 DC EC F9 C8 D7 0B 36 52 12 3E F0 F3 B5 52 3A
 BA 42 1C E2 E6 6E 0B FF 60 08 ED E7 B3 E9 78 28
 E0 8A DE 54 37 19 73 5D 51 3E 12 8D B5 71 A4 57
 D0 AD 3F A1 4A 20 95 7A AF 50 BF 1A 37 D6 C3 DA
 AB BC 4F FA 17 7F 39 70 5C 71 7A D8 57 6F 2A FA
 7C F1 2E 97 19 9B 0F E2 3C 0C 50 0D 43 2A F6 D1
 80 8B 23 F8 2C FE CB B4 91 BD 21 C4 DD FE A9 02
 9D 31 94 A2 F3 17 77 86 F2 CB 32 05 97 E2 4D 55
 DB 84 C5 F2 34 54 57 E9 40 25 FB 3D 5F 91 26 32
 87 53 74 E1 6F 06 A7 74 32 EB DC 55 CA 23 CA 16
 F0 47 6F CD 8A 22 79 B6 81 23 0D F8 FF 96 94 C1
 6D 80 84 23 88 50 25 E8 F8 24 0C 62 25 82 14 26
 19 72 9C 3D CD 02 AB 97 96 9A 8A A6 94 25 24 20
 E2 02 6C 5F C4 37 E2 2E BC 22 41 08 2D 09 D5 44
 09 4F 76 47 6A 9D D7 33 64 C9 70 57 BB CD 7E D2
 29 4F 51 AA 51 0F 77 71 72 1B A4 B3 C2 AC 2E B4
 54 CC FB 40 73 90 F5 FD 7C 63 F4 09 77 1C F9 8C
 40 E2 81 1C 73 AD A0 21 99 DC B9 A1 33 09 16 41
 12 0F B6 48 C4 BD F5 DB 13 F2 FB F4 8A F3 BA C5
 50 97 58 2F 9E 09 43 A8 8A B3 8B B0 BA 96 51 2D
 43 A2 8C 30 DF FB B3 DD 52 5A 79 76 56 E4 DA 04
 35 09 D5 04 ED A2 40 C2 04 D8 89 A6 AA FD 3C E0
 BE AD C7 04 29 CF 76 E3 DD CC 0B 6B B7 4D A3 82
 05 91 87 89 0A 5F 0E 61 B5 44 3E 1D 62 4E 34 5E
 E4 51 BA 2B 92 79 B9 BD E6 FC BB FE 89 82 4A 1C
 3A 9B DA D5 6F 63 CC B5 34 AE ED BB F8 F3 50 7C
 F4 AB EA B3 B2 E4 F0 73 3D EC 2A 50 D3 B4 3D F5
 5A 7C 18 9D 74 6B 96 1E B2 F8 4B 0A CC A5 1C 6F
 E5 A9 D5 E4 CE FA F5 40 96 8D 6F 02 F1 57 A5 68
 C5 BF 32 45 93 C4 15 F3 6C 51 D3 FF 43 F5 32 E5
 49 89 27 21 62 9C 0C 1B 50 37 49 DD 8F E8 52 5F
 4D E8 FD 86 DA 83 7E 59 A4 20 09 E6 26 FD 23 99
 57 50 FB 4E E7 A3 C1 D5 47 8E 62 22 8F 98 CC 01
 9B 41 ED AB 43 3B AA D0 CF B4 B9 EB 1F B5 AF 9E
 97 0D 28 0E 73 3F ED F3 B8 2A 02 10 7E 78 2F C4
 E5 2A 5C 9D 5C 0F 20 70 E1 C3 73 84 68 E6 1A 16
 7F FD 23 7A 92 00 4F 42 CF 59 F4 68 94 C6 7A 5C
 46 74 23 48 90 BC B9 E1 E5 32 AC AF EA 9D 61 E6
 88 1C 81 47 57 0C FB A4 9E F7 93 65 9B AA 34 10
 01 F1 36 A3 36 F6 3B 81 CA 4E 88 1F DB 65 88 90
 96 76 C3 25 5A A5 64 3A 38 3C 27 7C 18 F1 9B 71
 B4 EC 8A F8 C1 5D B2 B8 7E 6F B5 D6 56 F0 83 14
 FF D5 4F 59 26 73 5B 43 3A 8A 51 E2 DB B5 EF 7B
 5C F4 E6 28 19 93 77 1A CB 07 41 EF 2F 72 66 FA
 31 13 C3 E0 63 FA FC F9 06 11 8B FD DB 87 8D BC
 48 A2 F6 72 C1 B6 70 8B DB 2D 6E 4B 00 14 D7 6C
 24 0C 96 79 3B BC 58 02 1B 3D 1F 98 E1 2D 6D 5D
 C6 30 1D 5F 3B 94 1E 37 85 01 D3 DA 6B 13 06 F5
 DE 75 82 3C EB 70 D4 1C D4 48 8F BB 22 5D CC 30
 38 7C CA C7 7F C4 9E 55 9D 60 DA 12 5D BE EA 8F
 48 C1 CB 55 4F F2 38 5C B8 24 B4 1B 3D F9 AC 22
 EA 3A A3 F9 AF BC FA 81 05 E3 F8 08 BE 17 1C 31
 A7 EC E3 35 EA 34 8D 95 F0 00 64 15 29 FF 40 D4
 2C 56 58 CF 7F 8C 2C F8 69 FC FC 88 3B 10 71 DF
 E1 BD 79 C5 B6 8A 74 4D 0D D5 34 07 84 E6 88 61
 3C 9B 07 8A 2D 5C C8 1A 22 B1 25 03 22 11 C8 62
 51 47 13 83 58 98 3F E9 5B C8 83 4A 3C BB EB 3E
 1C E1 30 94 B5 47 CA 25 19 1B 9F 48 80 7E 51 EA
 14 61 C4 F7 4D F2 12 EB 54 18 32 19 57 E6 C5 E9
 B2 FE 54 FD 66 71 3D BC E6 47 CF F1 BA F3 0F 0C
 C0 11 5D C9 86 4E 22 28 E9 51 A4 1D 9E 64 FC 8E
 43 F9 7B 85 67 9F 2D A7 77 BA 89 8A 80 21 F2 16
 CD 26 51 10 6A 62 7F 1E ED 39 1C E5 84 9D B2 B0
 CE C0 7B F7 8F DB 92 27 DE 09 7A 07 C1 41 3A A8
 EA 64 00 35 78 86 F0 50 67 29 CE 61 58 79 72 A6
 07 81 89 00 80 2B 28 17 53 41 3C EA E6 F7 7B 12
 5B 08 CE 4A 60 7A E2 E7 86 9D BB B2 DA 7E BA 2B
 0E BC EB 14 C7 53 FE 47 9B 27 4D 37 EC 8D 73 D3
 A7 69 A7 A7 44 26 9A 1C E8 5C 1C 8D 94 25 50 EB
 24 3C B0 CF 35 4E 1A 2C A1 33 D2 02 C5 04 42 01
 71 E8 81 A3 1A C8 19 A3 AD EA 03 9C 46 7A B9 B0
 28 AA 76 C6 E7 8B 43 6F 3F 33 73 22 D9 F3 27 E8
 6B C3 88 11 A3 3D 7D 91 35 5B 99 DA FE BE 09 05
 37 D2 16 86 16 DC 97 BB 4D 2E DB 64 FE 49 6D 88
 55 20 E6 BC 0A FA BA A7 63 67 08 7D D1 14 85 4D
 7B CB DC 27 AF F0 69 CF 46 55 95 57 D6 F2 09 C5
 01 99 53 F1 C8 8D DB 7B 16 48 28 F8 FB C2 AC C2
 94 80 E1 34 1A 98 E7 D1 7C D4 66 40 77 91 6F 81
 D3 42 3F 2C 18 45 E9 80 2C 19 1F AD F5 5B FB 7E
 4B 79 36 1B 7A 1E 84 83 B8 7C AC FA 80 61 B7 44
 F5 F0 C9 28 45 1C 62 1D BF A3 DD 60 54 EA 0B DA
 4D 42 F6 05 F5 FE B1 D6 8D 29 0D 22 C7 A7 90 0A
 B4 F8 DA E2 1B 69 F4 A0 50 8B C4 2E A7 EF F4 BC
 90 3E FF E2 31 10 A6 84 4B 77 A8 77 29 50 78 5D
 E8 9A D8 86 8C A2 10 03 39 CE 0E C7 DE 17 C8 F8
 41 36 3A 16 77 30 2B 53 CA 61 F3 61 50 E5 FD B9
 3F E7 4A F0 65 90 81 4A 51 88 F2 9D E5 78 88 A5
 12 84 CF 86 6D EC B2 9A 99 07 33 F7 B7 79 64 AB
 3D 31 5F 3A 16 8C 87 92 A7 E2 2B 4D F8 B1 79 C1
 EE BE 77 A2 03 D1 53 E8 11 A5 07 A4 BE FB DF C7
 00 9D 18 63 2A E6 C5 E4 2E 22 10 F2 5B 9A 6A 2C
 D5 E8 12 AA C7 D6 E6 7C 4F E4 09 49 DB A3 82 32
 B5 A2 B0 68 0D C3 ED C9 A5 30 7B 61 3B D9 9E B0
 1A DF 5B 65 3A FB F4 D4 FB CF 79 2C 76 AB 22 AB
 3D 76 A5 AD 05 CA BD 16 0B 30 6A 1F D2 AF C3 C6
 40 B6 BF 76 F9 49 09 5D 9C DF 09 8F 7A B1 7E D6
 CA B3 E1 8E 0F 67 5A 9C 27 75 13 E3 95 53 9C 73
 79 96 DF 1D BD 3B D5 FE AB 1C 2C 09 FA 31 2D D7
 31 38 81 EA 96 13 CD B6 ED B7 3A 36 A6 B1 CD 54
 2D 51 A8 98 E6 48 B1 01 49 7D 6F 64 CE 6E C5 5F
 9A 41 B3 55 E1 42 76 10 0B 42 81 C8 20 10 2B D7
 39 D7 88 E9 D1 40 A8 A8 6A 53 F1 5D 10 A2 2D AA
 B0 49 54 DD 1D A6 0D CA C0 59 7A 33 3B C5 89 11
 F9 CC 32 06 9E 71 F5 19 2F 52 96 C3 8E 9C 7B CD
 F2 6E E9 85 40 AA E8 49 26 3E 81 DD EE 76 E2 AE
 33 6B FE 5D BC D7 B7 C6 9D CC BE A2 A1 CF 7B 41
 97 85 EE CB CD AC 45 BB A2 53 29 E9 38 DE 03 D0
 46 A0 FC D0 6B F2 1B 4F D6 0D DD 11 68 08 5E 4C
 88 78 11 C3 A4 FB 6A 65 29 36 1B C3 2B 4D C9 8B
 0F AD AD FE 0A AF 7E 14 82 EF 3C DA 6C F4 85 E8
 B9 AA BD 9B BF 87 DF 27 E6 36 72 1A 93 53 CB F0
 7E 2C 1B 17 67 7D 34 F9 B9 E6 74 28 B3 25 77 4C
 5C 3E 9F 6E 0A 5C 91 4A 26 5B 57 BF D3 9D 16 59
 8D D2 CC 6D 4F CE 2C 6D 84 9D CD 26 CE 66 40 A5
 F7 FB 92 0B 42 89 62 FF B9 E2 30 97 5B D8 6A 15
 B9 02 FF C5 2B 62 D6 7B 68 95 C0 F8 93 05 16 A1
 A8 24 29 06 C1 77 D0 94 48 7C 52 72 C8 10 7E 03
 39 BB E7 85 B4 AD 68 3B 57 8D 46 EF CC 81 11 05
 7B 6E AF AE 8B E4 CB C1 F4 51 83 9F 58 52 37 C0
 E8 44 B6 E3 0B 30 19 98 20 6A 09 9B 53 CA 2D 78
 32 70 C4 65 13 F4 A5 87 F3 3D C6 12 87 C1 CC 3D
 58 97 42 43 EA 33 B0 4D 26 1D 91 71 5C 71 E1 F5
 18 16 7D 9E 61 C4 3B 5E 0F 07 7C EC 3A 3E 5B BD
 BE FA D2 F2 36 0B 9B A5 FB D3 39 CE 0B 38 CC F6
 A7 3E B0 48 6E 98 91 D9 FE E5 01 6F 1F 35 BE BB
 21 97 36 4C 83 25 D0 A3 24 60 05 BB DB 5D CA FA
 1E 78 0A CB 05 D5 A4 40 0A C8 58 DC CE 47 39 36
 B7 C5 19 37 33 C2 12 32 AF 3F A3 CC 1A 5E 8B D0
 4C 91 FE 5F 53 6F A2 10 2F AB CF CB 6B 83 F2 D9
 B4 06 88 8B 56 31 35 6C B0 99 2C 08 66 BB 4F 35
 30 26 56 72 39 6C 31 B3 80 A2 87 1B E8 BF D1 0A
 26 44 80 5A C0 67 21 09 3F F3 8E CF A6 25 DB 2D
 2B 8C CF 18 27 E5 AA B3 B8 72 40 F4 94 62 C4 78
 3A 74 FD BD C9 94 5C 3A 09 E1 03 F5 15 9C DE 83
 BF 89 E5 B0 3D AD 0D 89 94 71 F9 08 9C 56 37 AC
 CE A3 5C FD 25 EF 46 80 3C AB B7 C0 71 E3 CE 32
 DE 32 FF 3F F2 C3 68 C3 1B 34 23 D6 DE F8 28 E1
 9E 77 B5 BC C8 21 31 A9 01 E2 24 DA 55 A0 79 07
 88 E4 ED 1B F9 B0 11 F4 A6 61 08 58 48 EE 93 5E
 90 97 FC 27 A0 04 97 A7 64 D9 0A 5C 67 5B 9B 0B
 08 B5 8A 51 16 5A 60 A1 2E FD E1 07 A7 EC CD 87
 EA B0 46 7B 3F 06 7E 52 6D B9 8C A4 86 74 9D FE
 B3 85 B7 3C 2A 25 35 AC D6 88 AE 77 08 C2 45 BC
* End 1253279306 812258928