* LTspice Encrypted File
* 
* This encrypted file has been supplied by a 3rd
* party vendor that does not wish to publicize
* the technology used to implement this library.
* 
* Permission is granted to use this file for
* simulations but not to reverse engineer its
* contents.
* 
* Begin:
 9C D9 76 57 83 F8 5F F6 F8 EE 71 2A CF 8C 72 78
 A0 95 3F 72 A5 8F 9F 90 21 06 5E 4E 5C 25 27 FE
 26 74 DB 1C BE 02 BB 49 F1 16 58 11 BC E9 2A 9F
 8E 1A D4 6A DF 74 13 2E A9 23 F6 7B C5 44 6E C1
 68 D3 8F 67 28 9C 30 B1 AE E4 8A 2C 3F 2E BA DE
 BF 8F CA D8 34 BC A0 23 6C A1 E3 DA C5 C9 BE 5D
 55 7C DB 46 C0 0A BC 41 14 EC 55 89 58 F0 D8 B5
 1B 15 CF 60 21 C1 15 25 F8 38 76 B3 5E A4 33 31
 CE E2 7A FC 0E A2 93 58 F6 56 18 C7 C7 36 4C 6D
 5E 87 C7 6E C3 0C 43 FA 71 61 44 CE 2A E5 50 CE
 C9 7F 17 97 AD C5 73 D8 43 2B F0 05 D5 5E F3 FE
 3F B2 8C 1C 92 EC 2C 2E 33 D8 E7 7A 6C 77 3A 37
 51 B9 87 D3 13 95 8E 70 72 89 7D 31 FF 7B 26 55
 6D 67 40 CC B8 E9 99 41 6E E8 4C 19 AD B8 A7 ED
 8C 36 40 FE 53 2D 3C E2 8E AC B1 54 5A 18 BC C6
 D5 5B 87 EF 1D 28 37 9F E6 28 5C A9 F0 A5 98 07
 1C 02 90 C7 52 4A 94 2E 4A BA 5E 77 1E 6D EB 81
 39 38 AA BE 7B 59 3A 48 63 91 52 29 18 BF 53 C3
 93 E2 E2 B5 EE 82 CC B1 D1 14 F1 32 89 44 7C 8D
 41 51 FD 96 27 51 61 3F F2 46 42 AF 06 00 EE 01
 95 A8 4F C5 12 12 B4 74 27 C4 F3 2B 2F 13 7E 89
 7E F0 8B 8F B7 5B 78 60 59 2A 23 64 05 2C 0C 37
 42 09 C2 2C D4 7C 60 D3 8F 99 26 BF AD 9B EC B3
 AA 48 A1 99 57 88 62 5E B8 B5 0C 63 01 9C FD 36
 CA 3B 08 C9 39 F8 AA 97 C6 DF A8 80 8E EB 04 F4
 3B DF D8 15 2E DD 58 A3 7D 33 1D 25 D1 81 07 DB
 C6 09 F4 2C F2 27 87 2E 69 FD B3 E4 3F 54 9C C6
 9C 13 1B F0 CC A9 B2 00 76 33 09 F8 21 88 CC F4
 1D 4C EB 3D 2C 9A 73 60 9E 9D 8E 42 80 11 6C C9
 6D A8 A7 D8 DF 83 38 F6 E7 57 B5 DF 0A A1 D7 CD
 D0 B4 1E 9B 32 1E 0B 42 83 EC 3B 72 80 8C 2D AD
 0C 16 DC 9C 53 CC 04 FB 5D A4 78 8C 4D B5 56 A4
 D9 47 8C 1A D0 DB BD 2F B0 4C DF 41 C4 B4 C0 A3
 9E 26 73 69 D9 11 05 80 37 81 B0 C1 B7 31 0C E5
 EB BB C0 A5 EE A5 EB 0B ED 22 9D 71 D2 FA 26 8D
 DD 1B 34 3D 02 E8 64 F6 12 80 DF 17 AA 3F 61 0D
 2B 3E 7C CE 53 EE 8D FA 6E E1 67 F5 D9 D1 04 F0
 85 2D 80 67 6E 6E 02 82 D6 64 74 70 5C 1D C1 59
 EC A7 4D DE 2B 0B 51 83 F8 C4 8A EB A2 32 92 0C
 80 2F 02 FF 98 ED B4 13 A2 6C 71 73 6A 48 91 3E
 29 F9 E6 01 BD 06 06 FD 03 8E 7E 87 B5 10 3D 51
 EB CC B1 AF F2 84 B7 36 75 44 1F 9C 89 20 9F D6
 9B 94 6B 23 D6 CC A2 67 1E CF D9 3E 61 B0 91 1E
 98 AA B5 7F D8 F4 01 79 F9 31 32 46 D0 CF BC 03
 8D 3F 8D 4C B0 BF F5 79 27 B5 62 53 3A A3 09 EA
 38 7A 59 B6 AE CA CA 7B 57 83 84 FC F6 49 65 73
 96 23 41 B7 5B A8 09 9F 24 78 43 CB D1 D8 01 03
 01 73 EB 9A 6B D7 14 1F 08 2E 3F EC D9 6C D5 D3
 00 77 7D 95 EA 2F 1D 1C 68 F2 C6 57 08 15 CF C3
 85 27 63 07 AA 14 D4 7A E7 9A CC ED F8 EC C4 BB
 42 2C 0F DB A6 2B 11 CE A5 9C 0E 02 CA 42 C8 48
 81 CE 87 1A 34 EA E7 8B 2E 3F 3C F0 20 B5 5D 98
 94 73 B1 85 F3 18 17 E9 27 70 57 FC 10 CD 32 BF
 B8 B4 15 4A 5D 76 E6 F3 B4 CB 72 9E DB D1 89 7F
 D6 C2 E5 0D 1C 2C 37 2A D1 43 A4 51 E9 F1 22 AC
 E0 C4 0B 19 A6 1D DC 70 51 03 C1 D8 3F 56 49 03
 60 4E 21 7D 8D 52 97 6A 6E 73 0C BE 1F 6B 75 A7
 3A D9 A5 84 71 B8 67 76 4F 5C 1B F0 9D B2 98 4F
 2B CF D6 36 74 16 59 66 48 5D 80 2D 0A CB 32 66
 99 D1 92 EA 03 A2 8D 3A 4C 0B A9 70 F0 44 A3 7D
 2D 66 A2 90 17 AB 68 B6 38 3D E1 18 99 68 68 E1
 D2 C0 56 71 64 7F 78 B1 D9 EF CE A6 83 41 A1 01
 71 75 25 17 32 C0 A0 EA ED BB 81 7E 9C 5D 8E BD
 F7 DC 05 CC 2F 7D 21 54 E9 54 C3 A6 7D 5F 2A 14
 C6 4A 65 25 4B 43 24 04 02 D1 17 35 B9 B5 EA 63
 EE 74 EC 6C F3 C4 84 0F 16 AC FC B0 9C 11 60 1B
 B2 26 45 46 99 1F F8 8D 65 25 5E D9 F2 6F 22 1F
 DA E0 BB 70 15 67 E4 73 73 0D 6A E6 D4 F0 D5 10
 94 1F F9 EA 11 23 0F 5A 9B 77 25 40 A9 06 6F 58
 E9 65 27 C5 1F F1 D3 EB 2F 3D C7 72 1C C1 5B E2
 5B 19 5A 95 99 DA 00 7F 07 EA 13 3B EB 09 C6 CD
 F7 21 8C 70 DF AD 04 9C 09 DC 7A 39 53 70 77 32
 B7 1F 39 59 F2 11 30 C0 0C D1 63 68 8A C4 E5 2F
 1E EB CE DB F2 EC 7B 42 AA 4B 10 49 F4 93 A9 02
 66 F7 4E FC F4 4A C0 21 4E 5B 69 99 B3 4F 83 22
 65 76 FD C4 23 2A C4 FA 6C 14 F8 69 13 1E D4 64
 7B 8F 14 D0 50 79 F9 33 BD 20 3F 52 97 62 E7 EB
 8A 81 60 29 36 35 7C 76 E6 0C E4 07 CF 69 F2 9F
 C1 2D 19 28 73 BB D1 E1 24 B1 64 E0 96 FE B9 3D
 50 BB CA 9D 0F 24 E8 60 AA F9 72 ED 41 38 F2 2E
 97 5B 2C D9 77 BE 31 12 0E 67 6F 19 3B B0 B4 4C
 06 91 89 F2 07 EB 4B 0D 32 40 1D 62 EF 86 AB BA
 1B 03 74 9F 04 A7 6D 93 19 80 A2 37 A8 33 A8 A9
 01 13 DA 2F 93 A2 2B BE 8F 5B 90 0E 9E 30 3E 04
 76 96 5E 7D 61 E5 F4 11 BD 45 5D A1 F3 3C A5 4B
 03 D3 D4 D3 CC 3A 6C F9 EE 4D B0 21 90 44 AC 3D
 EC BC D0 9C AD 5C C8 94 83 C0 26 E3 6F 5D B1 A3
 FD C2 AD 0A 5E 0E 7F F0 1C 14 5B C4 8A EC 6E 50
 E5 78 2D 93 84 B9 C3 0C D1 29 0F CE 26 82 64 82
 59 5B A7 21 08 A0 94 BF 1A 7C 8B F7 2A E0 D2 A3
 BB 71 34 B0 43 9D B4 29 CF 24 44 7B F6 1D AF 82
 FA DC F0 6D 62 B6 AA 26 52 04 64 F6 9F 47 5E 5E
 13 9E 0D 92 86 D7 AC DF 9F A1 BB 1A 47 0B F9 8C
 F8 11 3E DD 00 D5 12 56 EB C3 AE BE 6A 04 DE 73
 B5 E1 19 FE 5B 5A 3A 7B F5 08 DA 82 EA F9 FD 3B
 B2 39 DF F4 01 3C 9E 85 B9 FF 86 E0 8D 14 9D 22
 01 F3 FB 72 79 4B 3F 7B 63 E0 DD 82 CB A2 61 F8
 01 1E 5E F3 D7 4B 9C 03 57 DF 94 D7 5D BC CA 88
 AA 20 78 35 75 E0 CD D1 DE 3F AF 83 1B 0E A7 F2
 BB E0 B5 CA D8 A7 1A 3D 48 8D 46 86 D8 98 DB CF
 50 2D 1D 2A 62 E4 0C 8D 18 2B F7 8E BC 46 EE 2B
 9A CE A0 AF 41 6B AB 44 27 9D E3 0E 22 AE A2 F8
 99 2C 9D FF 5F 89 1C 26 FC AA 84 8A 2E 85 1E 06
 15 9E 3E 6D E0 62 80 02 43 12 2D DC B0 1A AD 37
 A2 8A 8C 91 89 A5 3B 09 86 F1 B1 21 34 C2 92 9A
 0E F3 A3 F4 FE C2 16 BE 61 FF 46 49 BE C8 A1 B9
 73 3F 6A AF 0F AF 01 7C CD E5 54 30 2C 72 3C FB
 47 B1 BC 02 80 9A 43 0A 88 69 37 B8 90 87 84 2C
 87 88 E5 9E 0D FB 71 AA 9F 81 D7 76 D2 85 66 F9
 9C BC 08 93 E8 DC 8D 29 40 97 7B 70 8E 92 C6 9F
 D4 11 BC 50 76 47 DB 79 47 00 71 49 24 83 80 A8
 73 57 56 68 56 1D 24 85 69 28 91 68 D6 3B C3 3A
 95 C2 AC 4C 9E A3 12 1E F0 E9 23 F9 A6 73 A3 EC
 80 C4 29 47 BD D7 76 9A 65 00 9B 78 57 27 60 68
 64 3E 0E 66 6A 43 70 97 72 69 48 46 6E D7 F0 71
 0D 01 3E A6 BB 56 F5 2C 73 0F 4A 02 5C D7 E7 4C
 1F 7F 2B 8E AF 5A F8 BD 9F 37 9D 07 16 F1 AC 52
 86 39 73 84 D4 C5 C2 84 8C A9 E6 68 D6 1A 01 17
 28 33 15 78 5A 84 8A 8C FE E8 14 9E 99 17 45 39
 ED 9E 49 6A E2 C8 68 E0 A9 24 60 7E 5E 49 FE 45
 35 5F 13 57 6C CC BA 52 1D E1 90 AB 1C 91 53 25
 44 45 9C 05 EF 3C 4E EF 0E AC 95 5A FF 44 BF A7
 F4 1E EA E5 AA 3F FF 3D 25 BA 12 FF 1E D2 60 6E
 09 DC A7 3B 39 C9 56 55 D6 E5 DE BD 01 6D CC C7
 87 2E F6 9C 0F 57 13 D8 45 23 85 B8 93 40 D9 42
 E9 47 66 D5 BA 9A 12 BD 5B 11 B7 1C 1E 5C CD 65
 0B 8F B8 50 6F 7D F7 E1 BF D1 59 80 54 9C 70 C0
 D1 C9 FF 58 7A 12 11 08 AB 3C 8D 82 8B DD FC 6F
 B4 E9 4B EF FE F6 E1 EE B8 B3 07 58 8F 44 9E 6F
 5A 8B FB 16 87 87 22 3C 25 5B 00 66 E7 75 B3 FE
 4F B1 A2 97 B0 27 17 B5 69 2C EE 14 6D 0E 57 78
 9A C2 1E 06 75 8E C8 62 8E 9B 48 75 4D C3 BE 5D
 42 BE C0 51 69 44 F9 45 2F 67 5F 2A 6D 6F D0 8C
 1D F6 24 B5 7D E3 42 45 96 F5 AB 58 D4 06 D8 3C
 50 EE C9 64 33 3A 63 12 28 E9 F7 24 8E 31 87 1F
 4A 0F 87 4F 2F 2D FC 9B 9C 17 54 09 CE 1F 01 46
 71 78 23 F1 53 A1 61 0C AD C2 C4 6C F8 89 C6 24
 EA 1B 1E 42 CA 7A F6 F7 37 02 88 67 1D E4 E3 26
 BB DD DB C0 31 C1 41 83 13 8A 92 6E 47 BA 57 9D
 0F EC 38 7C C1 E8 F9 F0 74 C2 BD AC 12 41 B0 4F
 1F AC 53 6A 04 FB 83 46 BC E2 7C ED 23 28 2B 2B
 2F 8E B6 5A C7 3C 08 0E A6 41 5B BE 5F 91 28 4E
 1F 2C 83 AD 08 03 1B F5 46 67 E7 64 4A E4 2D 31
 7C EF 19 97 C4 7D 80 5B C2 4E 7A 57 BB 86 68 CC
 E7 BF D9 13 DE AF C4 96 3B 4A 56 2C 92 15 AC 3A
 E4 E6 56 DF C6 DC FD AB 56 C7 61 31 C2 41 07 88
 54 D8 59 B6 87 C5 55 97 F3 67 94 00 95 DF BC 43
 95 3F 8B 84 25 45 A3 7D F7 94 6A A4 F4 FC 68 3D
 19 FA 8A 4B 78 07 07 01 F7 7A 7C 08 26 BD 69 B5
 A9 35 3C 00 64 FF 53 24 96 FE 60 14 76 01 88 AB
 C3 95 16 A4 9A 81 D4 05 90 74 19 F5 1F 60 94 4A
 E2 81 47 57 4F FF 60 7B 5F D4 95 E3 12 3D 18 BA
 4B B8 B7 79 86 8E 78 35 5E 35 98 ED A1 03 06 32
 D3 C3 52 38 3B 7C 8C D8 BE DE 43 31 06 BA D6 A0
 25 23 07 B7 44 AF 2E 73 A8 27 1C 78 2D 50 55 A8
 BE 11 95 93 E3 41 16 1D C7 00 E1 DD 3B 82 C9 9F
 C7 B5 5E 28 BD 35 66 E2 72 5E 53 51 E1 21 52 2D
 AE 56 8C 3D A1 11 C5 79 E0 F3 16 35 80 A8 AF AB
 2D 39 06 AB 94 4D B4 5A D5 29 CF 46 D5 D0 BE CF
 82 79 FE 9F 35 69 E4 6A 19 3A 85 02 58 FF 54 95
 0A B2 49 A4 A0 16 E4 64 A7 1F 2F 19 95 A8 73 67
 45 65 6E 10 CA 30 10 9D E6 29 F5 7F 53 E2 94 C4
 8A 0C 81 94 11 6C AB D8 2F 63 97 97 AB 84 8A 72
 3C 95 65 17 C4 79 C2 70 B0 85 EF B6 D6 4F E2 C9
 E9 5A DC 0D EB 6B 78 A3 B0 AF 6C 40 18 FD 9E D2
 AB 1D CA A3 7F 7D E7 0C 0A 9A 36 DD 46 76 CF 0E
 94 B8 6C 74 5D 6E 6E D1 AC 11 9E D5 0B 5E D8 0B
 F5 0F B5 02 01 6E 2B 88 07 E6 56 B3 FC 31 D1 6F
 20 76 8C 33 08 F9 B6 6F 54 AA AF BC 71 35 89 31
 0B AA 12 33 5F 89 A2 C0 40 8F 62 98 E4 F5 5F 91
 B4 E6 96 1A 11 57 4A CC 75 1C 52 15 2E CE C5 48
 7D 92 3C 05 D0 DB 37 FD 93 49 CD 28 0A 5B 81 63
 1A 81 CF 0F 4B E3 DA C7 83 D0 8F 90 B4 B3 E4 D4
 C3 4B 1F 19 46 82 C9 E9 1D C5 05 75 43 A2 0E 1D
 54 D4 5E 56 86 CA 85 47 52 79 DE 21 CB FA 7E 2C
 8E F6 65 B8 7E 43 B5 A5 C2 35 57 B6 19 8A 2A 03
 33 A5 CB D4 58 C5 6E EB C3 D4 42 FB 06 A4 1B 4E
 64 EB 4F B4 C9 FF D7 6A 36 0E 1D 39 6A 8E B8 E1
 57 A3 E5 6A 8E B7 1C 56 A6 54 E2 0E 79 11 0F 27
 62 9D D4 BE F8 0C B1 94 A1 69 F2 57 8D 0A 71 6B
 69 8B 58 59 9E 47 92 E9 2C 4F 5B C1 EC 65 68 11
 C6 65 9E 96 79 17 39 40 69 85 CD 93 9F B9 C9 8C
 80 5B FD FD 02 D4 CD 43 94 A1 05 4D 21 64 6A 62
 57 6F E4 DE D3 2B 19 27 08 03 0D 45 B9 4C C5 32
 B4 2D C5 EB AB 38 E3 77 80 93 F8 74 6C 56 A2 75
 24 FE 54 6B D1 2A 6C 22 4E 15 06 FB 4A 86 48 10
 E2 E4 19 81 3C CD 49 86 CE 1C 7B 7B 0E EA 00 C4
 EB 09 DD A0 0A D8 3E 68 05 C0 A6 5D A9 35 65 F2
 25 62 0E D7 03 2D 51 D5 80 D4 8D B2 67 6C 6E AA
 E4 A7 19 D4 D4 EF 8F 30 23 D7 3F 4E D0 BF A7 62
 1D B7 94 E2 15 7B 16 FD F0 31 84 18 D9 1A 58 00
 15 36 E2 E4 3C 42 BB E3 25 55 29 7D 97 B6 82 48
 3B FA B5 3F F1 5B B5 74 FB 46 6B 21 0D E2 33 57
 66 89 1D F5 51 8B AA 5F BA E8 CB A1 10 7D 17 D0
 5F A5 B2 14 0D D4 B9 E0 BD E5 B7 3D 22 D2 1B D7
 E6 F7 FE 37 F1 BA 52 35 EB CF 69 A9 52 04 9B 7C
 ED 5B 72 C9 59 B2 F7 1C D6 ED 57 7A BE 7D 5B 31
 6F 15 9B 0D 88 35 56 75 18 36 21 F1 1D 0B 89 B3
 AA E0 22 44 8E 3D B2 FC 29 2A C8 78 94 79 63 B8
 6F 1B 5E 24 71 96 B1 CC 03 C1 2B 51 9F BD 9D 22
 D1 CB 73 D9 C8 26 09 49 15 B6 79 0A 25 70 8B 5D
 5D 52 43 5F 5B 53 BB 24 44 21 0F B7 9E 91 FC 88
 0F 28 6A C4 24 C3 22 05 9A 64 51 EE 8E D1 08 55
 EE 12 9E 06 F0 89 AF AA 61 D7 4C F0 0F DB C5 61
 04 41 E8 40 57 F3 4D 27 96 EC 77 DB 15 2C E4 C4
 6B 27 9D 57 17 AE 16 9A EE 42 BD B9 97 46 4C 35
 E1 14 97 24 55 66 67 36 0A 5A 4E 97 64 1B 22 E7
 CA B8 C5 32 37 36 D4 4B C3 D4 48 F7 20 4E AE B3
 7F F4 31 13 FD 4C EF 98 C2 E4 AC 65 BD C1 6C 9C
 EF 39 01 94 8A A1 0A C8 12 5D 3F 96 53 DD 41 DC
 4F 22 10 55 68 58 63 CB 75 17 57 8A 92 37 F3 89
 BE E0 8B 0A 6C 2E FE F3 2A 8E ED 06 FF 3F B0 58
 93 8D FD BE 6E E5 BD C3 32 3C 29 86 4D 5A EA 4B
 34 32 9E BF 09 8A 2F 47 43 EC 5E 69 0E 51 F7 68
 05 72 D7 BF 31 DE 05 49 E2 AD 9E 5F 04 25 CC FB
 64 47 32 CA EF 36 AF 7A 58 F5 3E 86 E8 23 48 F3
 B6 51 E4 7C 35 B6 E6 77 17 C7 7E 73 92 3A 2B 7C
 3A 8C CA 1A 92 51 58 F2 B5 B5 43 0E 54 D7 41 9F
 44 0D B6 95 3E 4F B2 B0 3D B4 A3 DC 1F 45 F5 D4
 1D A3 1B AD BB E2 A3 21 3C D2 C4 6A 62 A3 0E 6A
 5F 56 C0 A0 56 41 74 83 0B 3B EE 81 2E 5B 63 C6
 FA 89 A7 41 F8 BB D3 6C 1B 37 92 79 C0 A7 5B B9
 43 3D F5 AA D8 AB AF DB E2 7E 05 10 BD 02 A5 D2
 AB E6 8C 1C 0F 8B CF 2A 5C 6D 34 F3 46 40 68 DB
 F0 18 26 BC 6E FF 30 F8 56 86 F3 C2 0C 62 32 44
 E3 92 D7 3C A5 1E 28 D7 4A 7B EA 4F 8C 56 CA C2
 49 0D 41 DF 17 B7 8F A3 11 88 76 E4 2E 71 93 0C
 18 82 99 C5 C7 25 A7 56 14 0B 77 52 80 69 72 E1
 06 6D A7 DB E9 90 0D CE 98 D7 E9 7E 83 BA E9 1C
 C2 57 D8 85 68 EB 37 54 61 C3 F4 EC D9 FC B6 8C
 5C 0E 97 A6 AC A2 9F 8D 7B 78 54 28 27 78 F5 DD
 1E 46 BE 3C 69 78 62 B7 3A AA B3 1B C8 18 3C B7
 80 88 80 8D A4 D1 F9 07 D0 0A D3 E0 BC B1 69 5A
 7A BE 30 D5 18 6E B1 C4 0E DE 6F 6E B0 D9 A6 E8
 99 F4 B9 3A 17 5E F2 17 2D 36 16 6B 45 F7 8C 80
 DA 9F 05 23 F6 88 0F E1 EB B9 4C CF FA 46 A5 32
 60 F2 47 75 AA 99 B1 C8 65 BD 8D E4 DF AC 01 DB
 D1 71 3A 95 DC E7 90 8B D6 BC DF 45 69 2C D6 9E
 6D 84 CB AE 8A F3 85 A9 82 3D 05 A5 01 BA 5B 0C
 64 72 6C ED D1 85 75 0B 0E 09 82 C8 9E D6 E7 60
 F3 11 04 A2 7F 4A FB 31 04 F9 A9 EB C9 5D 7B 7E
 93 09 2F F4 C4 C5 26 7D 63 9A 7A E9 A0 32 EA 09
 B3 E1 54 52 73 51 49 A9 A7 CA 4A 6A 6A F0 AC 4C
 EF 35 4A 54 F6 24 DD 98 E1 2B EE 3D 5B 3B 7B 43
 86 F6 EC 8F B5 47 8F F5 4A 1D B8 CE FE 1B BD A5
 03 E7 9D 04 AB 38 56 AF F8 D3 CA 9B 68 6F A1 9D
 2B CF 63 51 6D B5 44 27 90 00 CC 3A 75 B8 8B C0
 9F F1 71 27 8F B6 E8 ED 78 B6 0D B9 55 13 2D 80
 DE 35 3F 66 74 7E 3A C8 49 7D DD E5 9F 8B 3E 87
 7E 6A D7 7D D6 04 94 71 86 A8 0D 11 19 F2 A1 D4
 BE C4 4C B6 6B 53 84 D4 CA FD 0A 69 37 DA FD 49
 0F 98 22 FB E3 D2 9B 11 7D 9F 5E F9 55 60 85 6F
 02 79 63 BD 2A 9F 8F 30 AA 77 69 6E 6C 66 1A 33
 D8 02 0F 2C A3 08 7B 6D 0C 74 32 7F 78 CF F7 AE
 CF DF B4 8B D4 AE 93 B5 72 3E AD AA 0D 02 52 50
 42 C3 52 E1 08 5C 32 D8 51 20 2E 6C 7B EB 60 F1
 F2 94 95 4B 55 E7 EC 29 94 ED 4E 12 50 F6 AE FA
 5B EF A4 7B 6F A7 B1 C1 4C 8B D4 D5 80 39 97 3B
 F4 68 1A 58 9C 1D 63 E5 1E 36 1C 88 89 FB BB 2D
 D0 61 9C ED B2 9D B4 70 C7 C6 A5 69 DC 8B 3C DC
 E8 6E 97 3D 9C FF E6 83 14 84 9A 7B 13 78 41 2E
 C4 07 4E 76 DF 57 86 29 92 70 E0 74 8F 91 57 19
 DE 2F 1A 2F 6C 0D B4 AE A7 22 A0 CC 0F 74 88 C7
 4A ED F9 A9 03 9B 30 FD 9B D8 18 EF 31 8D CF AC
 68 E6 EC D3 9F 9F FE 82 AB 5D 9B 5A 74 9C FA 6F
 C9 77 25 71 74 F3 5A C1 B8 7C CC 63 C6 C8 73 46
 CE 76 DD 61 27 F2 2B 9B 87 13 5F CC 80 E1 C4 57
 81 9E 2F B7 B5 EE 6D 2C 0C CB F9 DC 08 8C 72 3E
 02 15 5B C3 FC A2 CE 4D EC B3 F3 79 26 EC 24 91
 23 4D E8 AF C3 5C FB 4C DD F3 A1 37 70 2F B5 7D
 B2 23 2B 48 F4 41 76 1D 38 3E E8 8C DD A1 BD E8
 34 C9 67 4D 3A CE 69 6E C2 55 38 1C 13 04 C1 CB
 E1 73 24 2F BF 3A 1D C6 B8 38 86 2A 83 E9 73 1D
 55 84 35 84 F3 E1 E5 6F 6A A4 69 5D 0B 06 67 E7
 D7 CA 53 49 95 A3 7D 4A 42 DE 49 10 DC 59 95 F2
 7D 73 C9 A9 1A 02 64 90 CD 08 05 8F FC 6A 33 EE
 BB 09 5F E3 A9 A3 9B 8C 9A B8 22 0F 73 27 0F D8
 1B 60 F7 E2 FE 6C 8A 5B 22 82 41 41 82 0C 7F 7C
 23 76 C6 7B D2 A4 35 62 B5 18 92 5E 92 C9 6E AA
 64 CA FD 0B 35 3C 60 BA FB 76 FC 31 87 01 9D 2D
 9C CB 0C 42 27 FA 61 9F 75 F8 AF D7 72 9F 22 7B
 43 7B 7E 4C 6F AE AE FA D0 FF EE D9 27 9C 38 E8
 58 D8 A2 5A EE 68 BC E0 C3 C8 E7 71 81 E9 62 B9
 45 FD 9B A3 F4 7C 12 B7 25 CC 50 EF 87 56 E1 A4
 A5 99 7C 07 BC CB 95 C4 2C E3 8A 2C 37 56 E1 3C
 74 74 0F C5 C1 6E 35 F0 42 A3 8C E4 56 1D 35 E0
 56 A7 D1 6F 04 B1 CD FA 9C FE DC 3F 1D 5E A9 D1
 C3 65 7E 43 05 A9 58 BD E7 D9 0D 65 68 C8 7A F0
 A0 4D 4A 2A 73 52 CB 1B D1 7A FF 43 97 21 B8 7C
 EC C8 4A D9 C5 EE E3 68 C0 C5 09 A4 A1 6F 67 FB
 57 C7 A0 85 78 A5 FB 3F CF 9B F9 8E DB 92 D9 DA
 36 BE 9E BB 8D 72 9C 40 98 E0 F8 B6 A1 DA FA 62
 5C 88 4A CA BA B6 44 69 8D 64 56 66 51 D0 A9 2B
 E2 71 77 1D 1C 24 97 4C 3B 41 29 E1 B3 5F 49 E7
 C3 A1 EA 53 FF EC AC 38 16 44 31 0D A2 51 C9 42
 1E AD AE DF 63 CB 84 0C 8E E6 E3 79 64 98 75 FD
 24 3B 5F EF DB 78 A3 4A 4B E2 22 8C F1 E7 D5 61
 D0 67 A9 75 54 AA D8 2C 2F 50 AB E6 9E C8 ED 18
 C6 66 00 14 F5 85 BC E7 DE 00 E7 FF 33 BF 41 A3
 64 8C 87 8B 8B 96 9E C9 F4 27 0D 9B 49 89 61 9B
 7B A9 92 DC 34 A1 D2 A2 5F FF 59 BF 82 99 A8 4C
 CC 2C 59 65 5B 80 54 29 C2 2D D7 E6 BA DF 28 E7
 A1 A9 40 39 15 DF 9F 20 D1 11 2F DB A1 71 04 0A
 63 E4 A0 E6 0D F9 90 3F 9F 6C EA 3A EE 7D C1 68
 91 29 CB EB 36 FC 3F 9D F3 69 AD C6 06 CD 68 C2
 BB A9 37 23 A3 B4 85 B9 E8 97 AD B4 BF 10 E1 16
 AD 50 21 BE CC 1A A1 8B 2F A9 38 AD AC D5 49 6F
 99 E7 42 38 02 A2 58 1C E4 02 83 35 16 CB 92 B9
 EA 40 17 F3 5C C2 9D CD 27 E1 77 F0 22 C2 31 3A
 4F E9 41 E1 3C 91 BE 24 FA 8B EE 25 CB B4 B4 E7
 D8 E3 3B 66 F1 93 50 AE 8B DF 1F B7 E9 93 C1 28
 DA 91 46 CF 15 9B 38 90 C2 F8 8E 71 52 7E 7E 17
 11 2E AE 65 0A 96 90 15 7F 70 38 D0 A5 E5 7A 7D
 EF 33 CE 5D 54 ED 40 44 1D 0C 7B A0 03 A7 7D A2
 50 DF B2 24 6E 45 73 A8 6B 3F 85 88 99 86 76 25
 BF EE 14 A3 79 C7 04 C5 67 56 26 59 F7 CD 84 45
 35 97 C5 BE 31 A4 25 1F 9F 66 49 71 F2 CC FD 74
 2B 95 1E 78 3C 6D D3 77 56 2D 7F 38 CA 5F D5 B6
 43 9D 5C F5 DC DC 67 6E 9B B4 37 B0 2F F3 40 49
 07 91 A5 4F AE 08 02 F8 18 AA 62 C6 9E FF E8 CC
 F3 0F 62 B7 42 A9 23 AE 42 EF 43 14 64 C9 90 A8
 6E 66 A9 81 4D 72 62 2E 70 B6 EC 13 67 65 A2 6B
 E8 99 55 4D 37 61 F3 F1 7D 99 2D E4 F9 F2 05 A9
 31 63 CD 0D 66 1E 1E 49 D9 9D 8E A9 96 EA 5B E8
 08 B8 7E 7B C3 05 91 3A 66 1A 11 5D BB 72 E5 40
 93 97 47 5E AE 93 DC 6B 6C C1 A8 1F F9 34 D0 47
 F0 15 C7 1F AC 8C 7C 8F 58 06 A5 47 E1 DD 4D 48
 50 F6 9F E5 7E 53 6A AE 41 8C B4 96 2C F5 72 50
 9B 23 D9 34 69 2D 3A 04 BC 0C 16 97 4D F7 CA 7D
 81 16 E2 A7 BE 9D F9 CD CC 84 5C E6 4B C1 D8 2A
 95 23 BC BF B5 AA 10 09 DC 1E 0D C4 32 C4 E7 17
 31 1C C5 58 B6 C4 4E 47 65 1F 6C 3D DA F2 AF CB
 AE 2C EC F9 09 0A 35 3F 62 D4 AE 51 CD 61 14 DB
 14 A1 10 3E CC 01 EB 91 7F D2 75 29 2E 7A 78 97
 07 38 8F 6B 0C 23 F0 59 00 6D 7E D6 89 C1 19 A3
 29 AA A3 01 1A C1 1F C3 6A 7E 01 3B FD 56 71 F5
 8B F0 B5 A3 47 22 0E CF 12 0C E3 E2 FF 09 92 CB
 E8 15 E4 08 9A 93 04 BC 33 F5 AC 5B 1E 5F 37 8F
 A7 F6 13 D1 19 BF 13 0A F2 DC B0 0D F3 78 55 33
 6E 0A 7D 66 66 F2 9E 58 61 62 1A 06 BA 21 DE 20
 1B 4F 83 21 7F B7 97 3F 71 B8 DD 80 0A D2 9F 3A
 5F CD 57 95 27 C5 E5 CC 2E CF 8F DC FD DC 06 AA
 C0 84 5F 19 25 3A 5D 23 BE 1A 62 D4 FA 08 42 B7
 DB 84 B0 3D 48 44 79 E1 9F 25 DC A0 3A 0F 52 82
 1A 11 DB 8F 75 1E 4B 6A EF 8F F1 92 4E 3E DC F0
 69 D9 FC 7F E0 5D 68 C6 62 2F F1 4F 2F 52 92 AF
 CC 05 7F 03 15 3D AE 5F 0E 95 B3 04 FF 39 1A 8E
 6D F8 66 89 17 A4 04 B3 DB BD D1 B6 41 B3 F6 9A
 6D C6 82 2D 43 F1 86 A9 C3 3C 31 BA 2B 39 30 65
 DC 3A A3 E3 17 C7 B0 86 12 2B 65 47 3F 51 F7 93
 98 E9 08 AE AB 8C BC A7 25 8F 6F 21 8E EF 14 EC
 8F 04 38 0D 6C FD 9D E8 86 AF E1 E5 A6 64 18 13
 7E 90 84 37 D8 BD 2F ED 09 50 11 4A E7 93 AF 69
 74 10 17 E5 7E 2E 5C 8C 23 33 BC D1 F1 0B 57 21
 F4 9B 92 24 1D 2C 44 D9 0E CA FD 5A A5 4C F6 01
 D8 33 66 15 59 E4 95 10 41 66 52 E5 89 58 1B 73
 74 1A CA AD 6B 58 D3 A5 A0 16 FB 6B 5E 99 45 3B
 EB 83 0D 41 AA 3E 1F 69 92 8E 83 FA A6 DD 0E 9B
 17 51 6E F8 24 A6 56 65 91 65 EE 2C A5 1E 81 12
 D7 DA 98 F1 D9 A2 51 8B 56 2E EC 66 6F CE 35 23
 FA 56 C1 BC CC 1C 6F 2F D1 41 65 2D C6 04 37 23
 6B FA 31 16 5F E6 5D D9 7B DF 90 B1 AC 35 0E EA
 5A 84 18 E2 F0 E8 3D F2 FC 53 26 73 D3 6D F3 DA
 C8 63 56 BA 30 85 58 A4 B6 A3 B5 FE 20 8B BE 81
 E6 FA 96 22 46 CF 60 4F D6 47 7E 43 D1 C1 C1 BC
 77 2C 77 83 F5 9B BE 8A 12 FF 5C 18 C2 EA B3 41
 AF 27 6B 6D CC A5 92 F6 4A 60 E6 70 B7 AB AF 06
 01 35 E7 3F 08 E3 09 AF A3 38 4E 30 4D 75 BB 63
 AA BD 29 F6 2B F6 E6 6A C6 B3 70 37 1A 51 7F B1
 75 8C 43 ED A9 BE 98 FD C4 85 2B 03 F7 D5 50 AE
 7F 18 38 C2 62 BF AA 32 6F 1B 3B FC 37 81 13 B8
 54 C5 00 9F 11 C5 FA 85 D7 ED C0 2E B0 18 06 17
 49 AD C7 CA 9D 7C 02 2A AE DA 2B C7 50 24 E6 C9
 CE BC EB B5 75 1E 5A 8E 79 93 8C 68 B8 CD 53 6D
 60 BA 67 04 B9 1B 1F EB 9C 13 C6 3E 1B F2 3F 95
 AE 4A 2E 35 25 BA 6A 5B BE B1 00 C3 39 B7 66 48
 BB 63 F2 17 8C A7 61 76 1F 47 24 69 FC 37 B8 0C
 7C C5 04 0E 06 13 3A A4 E9 31 FA FB 12 DF B7 06
 CD CB 32 6F CE 08 B1 EC 70 BB DF A1 63 C2 4F 05
 4B 0E DF 43 4B F0 8E 69 84 F3 08 C0 B4 C1 68 A7
 32 B2 38 FD 3B 43 FD D8 F4 15 0B EF D5 21 27 03
 22 C1 12 C2 CA A4 A2 F2 0A F9 E7 A3 35 A7 55 ED
 59 B0 A9 64 3C E8 03 41 1D 09 77 47 8F 88 C4 27
 5C DC 03 A6 1F D2 11 C8 EB C3 D5 37 4E 60 1A 0C
 9C 34 3F B8 69 D4 2D 8F 36 A2 B2 F6 73 A9 12 FC
 73 95 24 CB 3E 7F CA 1A 1A C9 4C 73 66 AF 8C 2A
 B6 EC 82 AE C6 DD D0 61 CF A2 B8 66 10 68 75 B3
 3A 66 E9 2C 7C 61 B3 03 A4 8B BB 0A BD 85 2D 08
 02 F5 6F 79 55 EC 6F A1 9A 19 BC 6B C2 3B 18 8D
 AF C5 D8 4B 6F 46 D0 7B 99 1A 56 6C 5F 57 AE 9C
 53 8E 04 DC 6F 6C 8E A3 28 49 68 5A 69 08 C7 FC
 22 41 DD FF A7 60 58 24 A4 35 B0 01 BF 5A 33 D3
 71 89 E0 21 4E 85 67 63 94 5B 65 DC 79 E7 7D 43
 3A 53 FE B8 B3 E9 86 C1
* End 379580896 2813445173